version 3
run Net60a-0-20220923-17:17:07-4508
attr configname Net60a
attr datetime 20220923-17:17:07
attr datetimef 20220923-171707
attr experiment Net60a
attr inifile omnetpp.ini
attr iterationvars ""
attr iterationvarsd ""
attr iterationvarsf ""
attr measurement ""
attr network networks.Net60a
attr processid 4508
attr repetition 0
attr replication #0
attr resultdir results
attr runnumber 0
attr seedset 0
config network networks.Net60a
config **.destAddresses "\"1\""
config **.sendIaTime uniform(1ms,5ms)
config **.frameCapacity 3
config **.appType "\"App\""
config **.app.packetLength "4096 bytes"

par Net60a.rte[0].port$o[0].channel typename "\"networks.Net60.C\""
par Net60a.rte[0].port$o[0].channel disabled false
attr mutable ""
par Net60a.rte[0].port$o[0].channel delay 0.02s
attr mutable ""
attr unit s
par Net60a.rte[0].port$o[0].channel datarate 100000bps
attr mutable ""
attr unit bps
par Net60a.rte[0].port$o[0].channel ber 0
attr mutable ""
par Net60a.rte[0].port$o[0].channel per 0
attr mutable ""
par Net60a.rte[1].port$o[0].channel typename "\"networks.Net60.C\""
par Net60a.rte[1].port$o[0].channel disabled false
attr mutable ""
par Net60a.rte[1].port$o[0].channel delay 0.02s
attr mutable ""
attr unit s
par Net60a.rte[1].port$o[0].channel datarate 100000bps
attr mutable ""
attr unit bps
par Net60a.rte[1].port$o[0].channel ber 0
attr mutable ""
par Net60a.rte[1].port$o[0].channel per 0
attr mutable ""
par Net60a.rte[1].port$o[1].channel typename "\"networks.Net60.C\""
par Net60a.rte[1].port$o[1].channel disabled false
attr mutable ""
par Net60a.rte[1].port$o[1].channel delay 0.02s
attr mutable ""
attr unit s
par Net60a.rte[1].port$o[1].channel datarate 100000bps
attr mutable ""
attr unit bps
par Net60a.rte[1].port$o[1].channel ber 0
attr mutable ""
par Net60a.rte[1].port$o[1].channel per 0
attr mutable ""
par Net60a.rte[2].port$o[0].channel typename "\"networks.Net60.C\""
par Net60a.rte[2].port$o[0].channel disabled false
attr mutable ""
par Net60a.rte[2].port$o[0].channel delay 0.02s
attr mutable ""
attr unit s
par Net60a.rte[2].port$o[0].channel datarate 100000bps
attr mutable ""
attr unit bps
par Net60a.rte[2].port$o[0].channel ber 0
attr mutable ""
par Net60a.rte[2].port$o[0].channel per 0
attr mutable ""
par Net60a.rte[1].port$o[2].channel typename "\"networks.Net60.C\""
par Net60a.rte[1].port$o[2].channel disabled false
attr mutable ""
par Net60a.rte[1].port$o[2].channel delay 0.02s
attr mutable ""
attr unit s
par Net60a.rte[1].port$o[2].channel datarate 100000bps
attr mutable ""
attr unit bps
par Net60a.rte[1].port$o[2].channel ber 0
attr mutable ""
par Net60a.rte[1].port$o[2].channel per 0
attr mutable ""
par Net60a.rte[4].port$o[0].channel typename "\"networks.Net60.C\""
par Net60a.rte[4].port$o[0].channel disabled false
attr mutable ""
par Net60a.rte[4].port$o[0].channel delay 0.02s
attr mutable ""
attr unit s
par Net60a.rte[4].port$o[0].channel datarate 100000bps
attr mutable ""
attr unit bps
par Net60a.rte[4].port$o[0].channel ber 0
attr mutable ""
par Net60a.rte[4].port$o[0].channel per 0
attr mutable ""
par Net60a.rte[3].port$o[0].channel typename "\"networks.Net60.C\""
par Net60a.rte[3].port$o[0].channel disabled false
attr mutable ""
par Net60a.rte[3].port$o[0].channel delay 0.02s
attr mutable ""
attr unit s
par Net60a.rte[3].port$o[0].channel datarate 100000bps
attr mutable ""
attr unit bps
par Net60a.rte[3].port$o[0].channel ber 0
attr mutable ""
par Net60a.rte[3].port$o[0].channel per 0
attr mutable ""
par Net60a.rte[4].port$o[1].channel typename "\"networks.Net60.C\""
par Net60a.rte[4].port$o[1].channel disabled false
attr mutable ""
par Net60a.rte[4].port$o[1].channel delay 0.02s
attr mutable ""
attr unit s
par Net60a.rte[4].port$o[1].channel datarate 100000bps
attr mutable ""
attr unit bps
par Net60a.rte[4].port$o[1].channel ber 0
attr mutable ""
par Net60a.rte[4].port$o[1].channel per 0
attr mutable ""
par Net60a.rte[4].port$o[2].channel typename "\"networks.Net60.C\""
par Net60a.rte[4].port$o[2].channel disabled false
attr mutable ""
par Net60a.rte[4].port$o[2].channel delay 0.02s
attr mutable ""
attr unit s
par Net60a.rte[4].port$o[2].channel datarate 100000bps
attr mutable ""
attr unit bps
par Net60a.rte[4].port$o[2].channel ber 0
attr mutable ""
par Net60a.rte[4].port$o[2].channel per 0
attr mutable ""
par Net60a.rte[5].port$o[0].channel typename "\"networks.Net60.C\""
par Net60a.rte[5].port$o[0].channel disabled false
attr mutable ""
par Net60a.rte[5].port$o[0].channel delay 0.02s
attr mutable ""
attr unit s
par Net60a.rte[5].port$o[0].channel datarate 100000bps
attr mutable ""
attr unit bps
par Net60a.rte[5].port$o[0].channel ber 0
attr mutable ""
par Net60a.rte[5].port$o[0].channel per 0
attr mutable ""
par Net60a.rte[4].port$o[3].channel typename "\"networks.Net60.C\""
par Net60a.rte[4].port$o[3].channel disabled false
attr mutable ""
par Net60a.rte[4].port$o[3].channel delay 0.02s
attr mutable ""
attr unit s
par Net60a.rte[4].port$o[3].channel datarate 100000bps
attr mutable ""
attr unit bps
par Net60a.rte[4].port$o[3].channel ber 0
attr mutable ""
par Net60a.rte[4].port$o[3].channel per 0
attr mutable ""
par Net60a.rte[7].port$o[0].channel typename "\"networks.Net60.C\""
par Net60a.rte[7].port$o[0].channel disabled false
attr mutable ""
par Net60a.rte[7].port$o[0].channel delay 0.02s
attr mutable ""
attr unit s
par Net60a.rte[7].port$o[0].channel datarate 100000bps
attr mutable ""
attr unit bps
par Net60a.rte[7].port$o[0].channel ber 0
attr mutable ""
par Net60a.rte[7].port$o[0].channel per 0
attr mutable ""
par Net60a.rte[5].port$o[1].channel typename "\"networks.Net60.C\""
par Net60a.rte[5].port$o[1].channel disabled false
attr mutable ""
par Net60a.rte[5].port$o[1].channel delay 0.02s
attr mutable ""
attr unit s
par Net60a.rte[5].port$o[1].channel datarate 100000bps
attr mutable ""
attr unit bps
par Net60a.rte[5].port$o[1].channel ber 0
attr mutable ""
par Net60a.rte[5].port$o[1].channel per 0
attr mutable ""
par Net60a.rte[6].port$o[0].channel typename "\"networks.Net60.C\""
par Net60a.rte[6].port$o[0].channel disabled false
attr mutable ""
par Net60a.rte[6].port$o[0].channel delay 0.02s
attr mutable ""
attr unit s
par Net60a.rte[6].port$o[0].channel datarate 100000bps
attr mutable ""
attr unit bps
par Net60a.rte[6].port$o[0].channel ber 0
attr mutable ""
par Net60a.rte[6].port$o[0].channel per 0
attr mutable ""
par Net60a.rte[5].port$o[2].channel typename "\"networks.Net60.C\""
par Net60a.rte[5].port$o[2].channel disabled false
attr mutable ""
par Net60a.rte[5].port$o[2].channel delay 0.02s
attr mutable ""
attr unit s
par Net60a.rte[5].port$o[2].channel datarate 100000bps
attr mutable ""
attr unit bps
par Net60a.rte[5].port$o[2].channel ber 0
attr mutable ""
par Net60a.rte[5].port$o[2].channel per 0
attr mutable ""
par Net60a.rte[10].port$o[0].channel typename "\"networks.Net60.C\""
par Net60a.rte[10].port$o[0].channel disabled false
attr mutable ""
par Net60a.rte[10].port$o[0].channel delay 0.02s
attr mutable ""
attr unit s
par Net60a.rte[10].port$o[0].channel datarate 100000bps
attr mutable ""
attr unit bps
par Net60a.rte[10].port$o[0].channel ber 0
attr mutable ""
par Net60a.rte[10].port$o[0].channel per 0
attr mutable ""
par Net60a.rte[6].port$o[1].channel typename "\"networks.Net60.C\""
par Net60a.rte[6].port$o[1].channel disabled false
attr mutable ""
par Net60a.rte[6].port$o[1].channel delay 0.02s
attr mutable ""
attr unit s
par Net60a.rte[6].port$o[1].channel datarate 100000bps
attr mutable ""
attr unit bps
par Net60a.rte[6].port$o[1].channel ber 0
attr mutable ""
par Net60a.rte[6].port$o[1].channel per 0
attr mutable ""
par Net60a.rte[7].port$o[1].channel typename "\"networks.Net60.C\""
par Net60a.rte[7].port$o[1].channel disabled false
attr mutable ""
par Net60a.rte[7].port$o[1].channel delay 0.02s
attr mutable ""
attr unit s
par Net60a.rte[7].port$o[1].channel datarate 100000bps
attr mutable ""
attr unit bps
par Net60a.rte[7].port$o[1].channel ber 0
attr mutable ""
par Net60a.rte[7].port$o[1].channel per 0
attr mutable ""
par Net60a.rte[6].port$o[2].channel typename "\"networks.Net60.C\""
par Net60a.rte[6].port$o[2].channel disabled false
attr mutable ""
par Net60a.rte[6].port$o[2].channel delay 0.02s
attr mutable ""
attr unit s
par Net60a.rte[6].port$o[2].channel datarate 100000bps
attr mutable ""
attr unit bps
par Net60a.rte[6].port$o[2].channel ber 0
attr mutable ""
par Net60a.rte[6].port$o[2].channel per 0
attr mutable ""
par Net60a.rte[9].port$o[0].channel typename "\"networks.Net60.C\""
par Net60a.rte[9].port$o[0].channel disabled false
attr mutable ""
par Net60a.rte[9].port$o[0].channel delay 0.02s
attr mutable ""
attr unit s
par Net60a.rte[9].port$o[0].channel datarate 100000bps
attr mutable ""
attr unit bps
par Net60a.rte[9].port$o[0].channel ber 0
attr mutable ""
par Net60a.rte[9].port$o[0].channel per 0
attr mutable ""
par Net60a.rte[7].port$o[2].channel typename "\"networks.Net60.C\""
par Net60a.rte[7].port$o[2].channel disabled false
attr mutable ""
par Net60a.rte[7].port$o[2].channel delay 0.02s
attr mutable ""
attr unit s
par Net60a.rte[7].port$o[2].channel datarate 100000bps
attr mutable ""
attr unit bps
par Net60a.rte[7].port$o[2].channel ber 0
attr mutable ""
par Net60a.rte[7].port$o[2].channel per 0
attr mutable ""
par Net60a.rte[8].port$o[0].channel typename "\"networks.Net60.C\""
par Net60a.rte[8].port$o[0].channel disabled false
attr mutable ""
par Net60a.rte[8].port$o[0].channel delay 0.02s
attr mutable ""
attr unit s
par Net60a.rte[8].port$o[0].channel datarate 100000bps
attr mutable ""
attr unit bps
par Net60a.rte[8].port$o[0].channel ber 0
attr mutable ""
par Net60a.rte[8].port$o[0].channel per 0
attr mutable ""
par Net60a.rte[7].port$o[3].channel typename "\"networks.Net60.C\""
par Net60a.rte[7].port$o[3].channel disabled false
attr mutable ""
par Net60a.rte[7].port$o[3].channel delay 0.02s
attr mutable ""
attr unit s
par Net60a.rte[7].port$o[3].channel datarate 100000bps
attr mutable ""
attr unit bps
par Net60a.rte[7].port$o[3].channel ber 0
attr mutable ""
par Net60a.rte[7].port$o[3].channel per 0
attr mutable ""
par Net60a.rte[12].port$o[0].channel typename "\"networks.Net60.C\""
par Net60a.rte[12].port$o[0].channel disabled false
attr mutable ""
par Net60a.rte[12].port$o[0].channel delay 0.02s
attr mutable ""
attr unit s
par Net60a.rte[12].port$o[0].channel datarate 100000bps
attr mutable ""
attr unit bps
par Net60a.rte[12].port$o[0].channel ber 0
attr mutable ""
par Net60a.rte[12].port$o[0].channel per 0
attr mutable ""
par Net60a.rte[9].port$o[1].channel typename "\"networks.Net60.C\""
par Net60a.rte[9].port$o[1].channel disabled false
attr mutable ""
par Net60a.rte[9].port$o[1].channel delay 0.02s
attr mutable ""
attr unit s
par Net60a.rte[9].port$o[1].channel datarate 100000bps
attr mutable ""
attr unit bps
par Net60a.rte[9].port$o[1].channel ber 0
attr mutable ""
par Net60a.rte[9].port$o[1].channel per 0
attr mutable ""
par Net60a.rte[11].port$o[0].channel typename "\"networks.Net60.C\""
par Net60a.rte[11].port$o[0].channel disabled false
attr mutable ""
par Net60a.rte[11].port$o[0].channel delay 0.02s
attr mutable ""
attr unit s
par Net60a.rte[11].port$o[0].channel datarate 100000bps
attr mutable ""
attr unit bps
par Net60a.rte[11].port$o[0].channel ber 0
attr mutable ""
par Net60a.rte[11].port$o[0].channel per 0
attr mutable ""
par Net60a.rte[10].port$o[1].channel typename "\"networks.Net60.C\""
par Net60a.rte[10].port$o[1].channel disabled false
attr mutable ""
par Net60a.rte[10].port$o[1].channel delay 0.02s
attr mutable ""
attr unit s
par Net60a.rte[10].port$o[1].channel datarate 100000bps
attr mutable ""
attr unit bps
par Net60a.rte[10].port$o[1].channel ber 0
attr mutable ""
par Net60a.rte[10].port$o[1].channel per 0
attr mutable ""
par Net60a.rte[11].port$o[1].channel typename "\"networks.Net60.C\""
par Net60a.rte[11].port$o[1].channel disabled false
attr mutable ""
par Net60a.rte[11].port$o[1].channel delay 0.02s
attr mutable ""
attr unit s
par Net60a.rte[11].port$o[1].channel datarate 100000bps
attr mutable ""
attr unit bps
par Net60a.rte[11].port$o[1].channel ber 0
attr mutable ""
par Net60a.rte[11].port$o[1].channel per 0
attr mutable ""
par Net60a.rte[10].port$o[2].channel typename "\"networks.Net60.C\""
par Net60a.rte[10].port$o[2].channel disabled false
attr mutable ""
par Net60a.rte[10].port$o[2].channel delay 0.02s
attr mutable ""
attr unit s
par Net60a.rte[10].port$o[2].channel datarate 100000bps
attr mutable ""
attr unit bps
par Net60a.rte[10].port$o[2].channel ber 0
attr mutable ""
par Net60a.rte[10].port$o[2].channel per 0
attr mutable ""
par Net60a.rte[13].port$o[0].channel typename "\"networks.Net60.C\""
par Net60a.rte[13].port$o[0].channel disabled false
attr mutable ""
par Net60a.rte[13].port$o[0].channel delay 0.02s
attr mutable ""
attr unit s
par Net60a.rte[13].port$o[0].channel datarate 100000bps
attr mutable ""
attr unit bps
par Net60a.rte[13].port$o[0].channel ber 0
attr mutable ""
par Net60a.rte[13].port$o[0].channel per 0
attr mutable ""
par Net60a.rte[11].port$o[2].channel typename "\"networks.Net60.C\""
par Net60a.rte[11].port$o[2].channel disabled false
attr mutable ""
par Net60a.rte[11].port$o[2].channel delay 0.02s
attr mutable ""
attr unit s
par Net60a.rte[11].port$o[2].channel datarate 100000bps
attr mutable ""
attr unit bps
par Net60a.rte[11].port$o[2].channel ber 0
attr mutable ""
par Net60a.rte[11].port$o[2].channel per 0
attr mutable ""
par Net60a.rte[12].port$o[1].channel typename "\"networks.Net60.C\""
par Net60a.rte[12].port$o[1].channel disabled false
attr mutable ""
par Net60a.rte[12].port$o[1].channel delay 0.02s
attr mutable ""
attr unit s
par Net60a.rte[12].port$o[1].channel datarate 100000bps
attr mutable ""
attr unit bps
par Net60a.rte[12].port$o[1].channel ber 0
attr mutable ""
par Net60a.rte[12].port$o[1].channel per 0
attr mutable ""
par Net60a.rte[11].port$o[3].channel typename "\"networks.Net60.C\""
par Net60a.rte[11].port$o[3].channel disabled false
attr mutable ""
par Net60a.rte[11].port$o[3].channel delay 0.02s
attr mutable ""
attr unit s
par Net60a.rte[11].port$o[3].channel datarate 100000bps
attr mutable ""
attr unit bps
par Net60a.rte[11].port$o[3].channel ber 0
attr mutable ""
par Net60a.rte[11].port$o[3].channel per 0
attr mutable ""
par Net60a.rte[14].port$o[0].channel typename "\"networks.Net60.C\""
par Net60a.rte[14].port$o[0].channel disabled false
attr mutable ""
par Net60a.rte[14].port$o[0].channel delay 0.02s
attr mutable ""
attr unit s
par Net60a.rte[14].port$o[0].channel datarate 100000bps
attr mutable ""
attr unit bps
par Net60a.rte[14].port$o[0].channel ber 0
attr mutable ""
par Net60a.rte[14].port$o[0].channel per 0
attr mutable ""
par Net60a.rte[12].port$o[2].channel typename "\"networks.Net60.C\""
par Net60a.rte[12].port$o[2].channel disabled false
attr mutable ""
par Net60a.rte[12].port$o[2].channel delay 0.02s
attr mutable ""
attr unit s
par Net60a.rte[12].port$o[2].channel datarate 100000bps
attr mutable ""
attr unit bps
par Net60a.rte[12].port$o[2].channel ber 0
attr mutable ""
par Net60a.rte[12].port$o[2].channel per 0
attr mutable ""
par Net60a.rte[15].port$o[0].channel typename "\"networks.Net60.C\""
par Net60a.rte[15].port$o[0].channel disabled false
attr mutable ""
par Net60a.rte[15].port$o[0].channel delay 0.02s
attr mutable ""
attr unit s
par Net60a.rte[15].port$o[0].channel datarate 100000bps
attr mutable ""
attr unit bps
par Net60a.rte[15].port$o[0].channel ber 0
attr mutable ""
par Net60a.rte[15].port$o[0].channel per 0
attr mutable ""
par Net60a.rte[13].port$o[1].channel typename "\"networks.Net60.C\""
par Net60a.rte[13].port$o[1].channel disabled false
attr mutable ""
par Net60a.rte[13].port$o[1].channel delay 0.02s
attr mutable ""
attr unit s
par Net60a.rte[13].port$o[1].channel datarate 100000bps
attr mutable ""
attr unit bps
par Net60a.rte[13].port$o[1].channel ber 0
attr mutable ""
par Net60a.rte[13].port$o[1].channel per 0
attr mutable ""
par Net60a.rte[18].port$o[0].channel typename "\"networks.Net60.C\""
par Net60a.rte[18].port$o[0].channel disabled false
attr mutable ""
par Net60a.rte[18].port$o[0].channel delay 0.02s
attr mutable ""
attr unit s
par Net60a.rte[18].port$o[0].channel datarate 100000bps
attr mutable ""
attr unit bps
par Net60a.rte[18].port$o[0].channel ber 0
attr mutable ""
par Net60a.rte[18].port$o[0].channel per 0
attr mutable ""
par Net60a.rte[14].port$o[1].channel typename "\"networks.Net60.C\""
par Net60a.rte[14].port$o[1].channel disabled false
attr mutable ""
par Net60a.rte[14].port$o[1].channel delay 0.02s
attr mutable ""
attr unit s
par Net60a.rte[14].port$o[1].channel datarate 100000bps
attr mutable ""
attr unit bps
par Net60a.rte[14].port$o[1].channel ber 0
attr mutable ""
par Net60a.rte[14].port$o[1].channel per 0
attr mutable ""
par Net60a.rte[15].port$o[1].channel typename "\"networks.Net60.C\""
par Net60a.rte[15].port$o[1].channel disabled false
attr mutable ""
par Net60a.rte[15].port$o[1].channel delay 0.02s
attr mutable ""
attr unit s
par Net60a.rte[15].port$o[1].channel datarate 100000bps
attr mutable ""
attr unit bps
par Net60a.rte[15].port$o[1].channel ber 0
attr mutable ""
par Net60a.rte[15].port$o[1].channel per 0
attr mutable ""
par Net60a.rte[14].port$o[2].channel typename "\"networks.Net60.C\""
par Net60a.rte[14].port$o[2].channel disabled false
attr mutable ""
par Net60a.rte[14].port$o[2].channel delay 0.02s
attr mutable ""
attr unit s
par Net60a.rte[14].port$o[2].channel datarate 100000bps
attr mutable ""
attr unit bps
par Net60a.rte[14].port$o[2].channel ber 0
attr mutable ""
par Net60a.rte[14].port$o[2].channel per 0
attr mutable ""
par Net60a.rte[22].port$o[0].channel typename "\"networks.Net60.C\""
par Net60a.rte[22].port$o[0].channel disabled false
attr mutable ""
par Net60a.rte[22].port$o[0].channel delay 0.02s
attr mutable ""
attr unit s
par Net60a.rte[22].port$o[0].channel datarate 100000bps
attr mutable ""
attr unit bps
par Net60a.rte[22].port$o[0].channel ber 0
attr mutable ""
par Net60a.rte[22].port$o[0].channel per 0
attr mutable ""
par Net60a.rte[15].port$o[2].channel typename "\"networks.Net60.C\""
par Net60a.rte[15].port$o[2].channel disabled false
attr mutable ""
par Net60a.rte[15].port$o[2].channel delay 0.02s
attr mutable ""
attr unit s
par Net60a.rte[15].port$o[2].channel datarate 100000bps
attr mutable ""
attr unit bps
par Net60a.rte[15].port$o[2].channel ber 0
attr mutable ""
par Net60a.rte[15].port$o[2].channel per 0
attr mutable ""
par Net60a.rte[16].port$o[0].channel typename "\"networks.Net60.C\""
par Net60a.rte[16].port$o[0].channel disabled false
attr mutable ""
par Net60a.rte[16].port$o[0].channel delay 0.02s
attr mutable ""
attr unit s
par Net60a.rte[16].port$o[0].channel datarate 100000bps
attr mutable ""
attr unit bps
par Net60a.rte[16].port$o[0].channel ber 0
attr mutable ""
par Net60a.rte[16].port$o[0].channel per 0
attr mutable ""
par Net60a.rte[16].port$o[1].channel typename "\"networks.Net60.C\""
par Net60a.rte[16].port$o[1].channel disabled false
attr mutable ""
par Net60a.rte[16].port$o[1].channel delay 0.02s
attr mutable ""
attr unit s
par Net60a.rte[16].port$o[1].channel datarate 100000bps
attr mutable ""
attr unit bps
par Net60a.rte[16].port$o[1].channel ber 0
attr mutable ""
par Net60a.rte[16].port$o[1].channel per 0
attr mutable ""
par Net60a.rte[17].port$o[0].channel typename "\"networks.Net60.C\""
par Net60a.rte[17].port$o[0].channel disabled false
attr mutable ""
par Net60a.rte[17].port$o[0].channel delay 0.02s
attr mutable ""
attr unit s
par Net60a.rte[17].port$o[0].channel datarate 100000bps
attr mutable ""
attr unit bps
par Net60a.rte[17].port$o[0].channel ber 0
attr mutable ""
par Net60a.rte[17].port$o[0].channel per 0
attr mutable ""
par Net60a.rte[16].port$o[2].channel typename "\"networks.Net60.C\""
par Net60a.rte[16].port$o[2].channel disabled false
attr mutable ""
par Net60a.rte[16].port$o[2].channel delay 0.02s
attr mutable ""
attr unit s
par Net60a.rte[16].port$o[2].channel datarate 100000bps
attr mutable ""
attr unit bps
par Net60a.rte[16].port$o[2].channel ber 0
attr mutable ""
par Net60a.rte[16].port$o[2].channel per 0
attr mutable ""
par Net60a.rte[23].port$o[0].channel typename "\"networks.Net60.C\""
par Net60a.rte[23].port$o[0].channel disabled false
attr mutable ""
par Net60a.rte[23].port$o[0].channel delay 0.02s
attr mutable ""
attr unit s
par Net60a.rte[23].port$o[0].channel datarate 100000bps
attr mutable ""
attr unit bps
par Net60a.rte[23].port$o[0].channel ber 0
attr mutable ""
par Net60a.rte[23].port$o[0].channel per 0
attr mutable ""
par Net60a.rte[18].port$o[1].channel typename "\"networks.Net60.C\""
par Net60a.rte[18].port$o[1].channel disabled false
attr mutable ""
par Net60a.rte[18].port$o[1].channel delay 0.02s
attr mutable ""
attr unit s
par Net60a.rte[18].port$o[1].channel datarate 100000bps
attr mutable ""
attr unit bps
par Net60a.rte[18].port$o[1].channel ber 0
attr mutable ""
par Net60a.rte[18].port$o[1].channel per 0
attr mutable ""
par Net60a.rte[19].port$o[0].channel typename "\"networks.Net60.C\""
par Net60a.rte[19].port$o[0].channel disabled false
attr mutable ""
par Net60a.rte[19].port$o[0].channel delay 0.02s
attr mutable ""
attr unit s
par Net60a.rte[19].port$o[0].channel datarate 100000bps
attr mutable ""
attr unit bps
par Net60a.rte[19].port$o[0].channel ber 0
attr mutable ""
par Net60a.rte[19].port$o[0].channel per 0
attr mutable ""
par Net60a.rte[18].port$o[2].channel typename "\"networks.Net60.C\""
par Net60a.rte[18].port$o[2].channel disabled false
attr mutable ""
par Net60a.rte[18].port$o[2].channel delay 0.02s
attr mutable ""
attr unit s
par Net60a.rte[18].port$o[2].channel datarate 100000bps
attr mutable ""
attr unit bps
par Net60a.rte[18].port$o[2].channel ber 0
attr mutable ""
par Net60a.rte[18].port$o[2].channel per 0
attr mutable ""
par Net60a.rte[21].port$o[0].channel typename "\"networks.Net60.C\""
par Net60a.rte[21].port$o[0].channel disabled false
attr mutable ""
par Net60a.rte[21].port$o[0].channel delay 0.02s
attr mutable ""
attr unit s
par Net60a.rte[21].port$o[0].channel datarate 100000bps
attr mutable ""
attr unit bps
par Net60a.rte[21].port$o[0].channel ber 0
attr mutable ""
par Net60a.rte[21].port$o[0].channel per 0
attr mutable ""
par Net60a.rte[19].port$o[1].channel typename "\"networks.Net60.C\""
par Net60a.rte[19].port$o[1].channel disabled false
attr mutable ""
par Net60a.rte[19].port$o[1].channel delay 0.02s
attr mutable ""
attr unit s
par Net60a.rte[19].port$o[1].channel datarate 100000bps
attr mutable ""
attr unit bps
par Net60a.rte[19].port$o[1].channel ber 0
attr mutable ""
par Net60a.rte[19].port$o[1].channel per 0
attr mutable ""
par Net60a.rte[20].port$o[0].channel typename "\"networks.Net60.C\""
par Net60a.rte[20].port$o[0].channel disabled false
attr mutable ""
par Net60a.rte[20].port$o[0].channel delay 0.02s
attr mutable ""
attr unit s
par Net60a.rte[20].port$o[0].channel datarate 100000bps
attr mutable ""
attr unit bps
par Net60a.rte[20].port$o[0].channel ber 0
attr mutable ""
par Net60a.rte[20].port$o[0].channel per 0
attr mutable ""
par Net60a.rte[19].port$o[2].channel typename "\"networks.Net60.C\""
par Net60a.rte[19].port$o[2].channel disabled false
attr mutable ""
par Net60a.rte[19].port$o[2].channel delay 0.02s
attr mutable ""
attr unit s
par Net60a.rte[19].port$o[2].channel datarate 100000bps
attr mutable ""
attr unit bps
par Net60a.rte[19].port$o[2].channel ber 0
attr mutable ""
par Net60a.rte[19].port$o[2].channel per 0
attr mutable ""
par Net60a.rte[26].port$o[0].channel typename "\"networks.Net60.C\""
par Net60a.rte[26].port$o[0].channel disabled false
attr mutable ""
par Net60a.rte[26].port$o[0].channel delay 0.02s
attr mutable ""
attr unit s
par Net60a.rte[26].port$o[0].channel datarate 100000bps
attr mutable ""
attr unit bps
par Net60a.rte[26].port$o[0].channel ber 0
attr mutable ""
par Net60a.rte[26].port$o[0].channel per 0
attr mutable ""
par Net60a.rte[20].port$o[1].channel typename "\"networks.Net60.C\""
par Net60a.rte[20].port$o[1].channel disabled false
attr mutable ""
par Net60a.rte[20].port$o[1].channel delay 0.02s
attr mutable ""
attr unit s
par Net60a.rte[20].port$o[1].channel datarate 100000bps
attr mutable ""
attr unit bps
par Net60a.rte[20].port$o[1].channel ber 0
attr mutable ""
par Net60a.rte[20].port$o[1].channel per 0
attr mutable ""
par Net60a.rte[21].port$o[1].channel typename "\"networks.Net60.C\""
par Net60a.rte[21].port$o[1].channel disabled false
attr mutable ""
par Net60a.rte[21].port$o[1].channel delay 0.02s
attr mutable ""
attr unit s
par Net60a.rte[21].port$o[1].channel datarate 100000bps
attr mutable ""
attr unit bps
par Net60a.rte[21].port$o[1].channel ber 0
attr mutable ""
par Net60a.rte[21].port$o[1].channel per 0
attr mutable ""
par Net60a.rte[20].port$o[2].channel typename "\"networks.Net60.C\""
par Net60a.rte[20].port$o[2].channel disabled false
attr mutable ""
par Net60a.rte[20].port$o[2].channel delay 0.02s
attr mutable ""
attr unit s
par Net60a.rte[20].port$o[2].channel datarate 100000bps
attr mutable ""
attr unit bps
par Net60a.rte[20].port$o[2].channel ber 0
attr mutable ""
par Net60a.rte[20].port$o[2].channel per 0
attr mutable ""
par Net60a.rte[24].port$o[0].channel typename "\"networks.Net60.C\""
par Net60a.rte[24].port$o[0].channel disabled false
attr mutable ""
par Net60a.rte[24].port$o[0].channel delay 0.02s
attr mutable ""
attr unit s
par Net60a.rte[24].port$o[0].channel datarate 100000bps
attr mutable ""
attr unit bps
par Net60a.rte[24].port$o[0].channel ber 0
attr mutable ""
par Net60a.rte[24].port$o[0].channel per 0
attr mutable ""
par Net60a.rte[20].port$o[3].channel typename "\"networks.Net60.C\""
par Net60a.rte[20].port$o[3].channel disabled false
attr mutable ""
par Net60a.rte[20].port$o[3].channel delay 0.02s
attr mutable ""
attr unit s
par Net60a.rte[20].port$o[3].channel datarate 100000bps
attr mutable ""
attr unit bps
par Net60a.rte[20].port$o[3].channel ber 0
attr mutable ""
par Net60a.rte[20].port$o[3].channel per 0
attr mutable ""
par Net60a.rte[25].port$o[0].channel typename "\"networks.Net60.C\""
par Net60a.rte[25].port$o[0].channel disabled false
attr mutable ""
par Net60a.rte[25].port$o[0].channel delay 0.02s
attr mutable ""
attr unit s
par Net60a.rte[25].port$o[0].channel datarate 100000bps
attr mutable ""
attr unit bps
par Net60a.rte[25].port$o[0].channel ber 0
attr mutable ""
par Net60a.rte[25].port$o[0].channel per 0
attr mutable ""
par Net60a.rte[21].port$o[2].channel typename "\"networks.Net60.C\""
par Net60a.rte[21].port$o[2].channel disabled false
attr mutable ""
par Net60a.rte[21].port$o[2].channel delay 0.02s
attr mutable ""
attr unit s
par Net60a.rte[21].port$o[2].channel datarate 100000bps
attr mutable ""
attr unit bps
par Net60a.rte[21].port$o[2].channel ber 0
attr mutable ""
par Net60a.rte[21].port$o[2].channel per 0
attr mutable ""
par Net60a.rte[22].port$o[1].channel typename "\"networks.Net60.C\""
par Net60a.rte[22].port$o[1].channel disabled false
attr mutable ""
par Net60a.rte[22].port$o[1].channel delay 0.02s
attr mutable ""
attr unit s
par Net60a.rte[22].port$o[1].channel datarate 100000bps
attr mutable ""
attr unit bps
par Net60a.rte[22].port$o[1].channel ber 0
attr mutable ""
par Net60a.rte[22].port$o[1].channel per 0
attr mutable ""
par Net60a.rte[21].port$o[3].channel typename "\"networks.Net60.C\""
par Net60a.rte[21].port$o[3].channel disabled false
attr mutable ""
par Net60a.rte[21].port$o[3].channel delay 0.02s
attr mutable ""
attr unit s
par Net60a.rte[21].port$o[3].channel datarate 100000bps
attr mutable ""
attr unit bps
par Net60a.rte[21].port$o[3].channel ber 0
attr mutable ""
par Net60a.rte[21].port$o[3].channel per 0
attr mutable ""
par Net60a.rte[23].port$o[1].channel typename "\"networks.Net60.C\""
par Net60a.rte[23].port$o[1].channel disabled false
attr mutable ""
par Net60a.rte[23].port$o[1].channel delay 0.02s
attr mutable ""
attr unit s
par Net60a.rte[23].port$o[1].channel datarate 100000bps
attr mutable ""
attr unit bps
par Net60a.rte[23].port$o[1].channel ber 0
attr mutable ""
par Net60a.rte[23].port$o[1].channel per 0
attr mutable ""
par Net60a.rte[21].port$o[4].channel typename "\"networks.Net60.C\""
par Net60a.rte[21].port$o[4].channel disabled false
attr mutable ""
par Net60a.rte[21].port$o[4].channel delay 0.02s
attr mutable ""
attr unit s
par Net60a.rte[21].port$o[4].channel datarate 100000bps
attr mutable ""
attr unit bps
par Net60a.rte[21].port$o[4].channel ber 0
attr mutable ""
par Net60a.rte[21].port$o[4].channel per 0
attr mutable ""
par Net60a.rte[24].port$o[1].channel typename "\"networks.Net60.C\""
par Net60a.rte[24].port$o[1].channel disabled false
attr mutable ""
par Net60a.rte[24].port$o[1].channel delay 0.02s
attr mutable ""
attr unit s
par Net60a.rte[24].port$o[1].channel datarate 100000bps
attr mutable ""
attr unit bps
par Net60a.rte[24].port$o[1].channel ber 0
attr mutable ""
par Net60a.rte[24].port$o[1].channel per 0
attr mutable ""
par Net60a.rte[23].port$o[2].channel typename "\"networks.Net60.C\""
par Net60a.rte[23].port$o[2].channel disabled false
attr mutable ""
par Net60a.rte[23].port$o[2].channel delay 0.02s
attr mutable ""
attr unit s
par Net60a.rte[23].port$o[2].channel datarate 100000bps
attr mutable ""
attr unit bps
par Net60a.rte[23].port$o[2].channel ber 0
attr mutable ""
par Net60a.rte[23].port$o[2].channel per 0
attr mutable ""
par Net60a.rte[24].port$o[2].channel typename "\"networks.Net60.C\""
par Net60a.rte[24].port$o[2].channel disabled false
attr mutable ""
par Net60a.rte[24].port$o[2].channel delay 0.02s
attr mutable ""
attr unit s
par Net60a.rte[24].port$o[2].channel datarate 100000bps
attr mutable ""
attr unit bps
par Net60a.rte[24].port$o[2].channel ber 0
attr mutable ""
par Net60a.rte[24].port$o[2].channel per 0
attr mutable ""
par Net60a.rte[24].port$o[3].channel typename "\"networks.Net60.C\""
par Net60a.rte[24].port$o[3].channel disabled false
attr mutable ""
par Net60a.rte[24].port$o[3].channel delay 0.02s
attr mutable ""
attr unit s
par Net60a.rte[24].port$o[3].channel datarate 100000bps
attr mutable ""
attr unit bps
par Net60a.rte[24].port$o[3].channel ber 0
attr mutable ""
par Net60a.rte[24].port$o[3].channel per 0
attr mutable ""
par Net60a.rte[28].port$o[0].channel typename "\"networks.Net60.C\""
par Net60a.rte[28].port$o[0].channel disabled false
attr mutable ""
par Net60a.rte[28].port$o[0].channel delay 0.02s
attr mutable ""
attr unit s
par Net60a.rte[28].port$o[0].channel datarate 100000bps
attr mutable ""
attr unit bps
par Net60a.rte[28].port$o[0].channel ber 0
attr mutable ""
par Net60a.rte[28].port$o[0].channel per 0
attr mutable ""
par Net60a.rte[25].port$o[1].channel typename "\"networks.Net60.C\""
par Net60a.rte[25].port$o[1].channel disabled false
attr mutable ""
par Net60a.rte[25].port$o[1].channel delay 0.02s
attr mutable ""
attr unit s
par Net60a.rte[25].port$o[1].channel datarate 100000bps
attr mutable ""
attr unit bps
par Net60a.rte[25].port$o[1].channel ber 0
attr mutable ""
par Net60a.rte[25].port$o[1].channel per 0
attr mutable ""
par Net60a.rte[27].port$o[0].channel typename "\"networks.Net60.C\""
par Net60a.rte[27].port$o[0].channel disabled false
attr mutable ""
par Net60a.rte[27].port$o[0].channel delay 0.02s
attr mutable ""
attr unit s
par Net60a.rte[27].port$o[0].channel datarate 100000bps
attr mutable ""
attr unit bps
par Net60a.rte[27].port$o[0].channel ber 0
attr mutable ""
par Net60a.rte[27].port$o[0].channel per 0
attr mutable ""
par Net60a.rte[26].port$o[1].channel typename "\"networks.Net60.C\""
par Net60a.rte[26].port$o[1].channel disabled false
attr mutable ""
par Net60a.rte[26].port$o[1].channel delay 0.02s
attr mutable ""
attr unit s
par Net60a.rte[26].port$o[1].channel datarate 100000bps
attr mutable ""
attr unit bps
par Net60a.rte[26].port$o[1].channel ber 0
attr mutable ""
par Net60a.rte[26].port$o[1].channel per 0
attr mutable ""
par Net60a.rte[32].port$o[0].channel typename "\"networks.Net60.C\""
par Net60a.rte[32].port$o[0].channel disabled false
attr mutable ""
par Net60a.rte[32].port$o[0].channel delay 0.02s
attr mutable ""
attr unit s
par Net60a.rte[32].port$o[0].channel datarate 100000bps
attr mutable ""
attr unit bps
par Net60a.rte[32].port$o[0].channel ber 0
attr mutable ""
par Net60a.rte[32].port$o[0].channel per 0
attr mutable ""
par Net60a.rte[27].port$o[1].channel typename "\"networks.Net60.C\""
par Net60a.rte[27].port$o[1].channel disabled false
attr mutable ""
par Net60a.rte[27].port$o[1].channel delay 0.02s
attr mutable ""
attr unit s
par Net60a.rte[27].port$o[1].channel datarate 100000bps
attr mutable ""
attr unit bps
par Net60a.rte[27].port$o[1].channel ber 0
attr mutable ""
par Net60a.rte[27].port$o[1].channel per 0
attr mutable ""
par Net60a.rte[29].port$o[0].channel typename "\"networks.Net60.C\""
par Net60a.rte[29].port$o[0].channel disabled false
attr mutable ""
par Net60a.rte[29].port$o[0].channel delay 0.02s
attr mutable ""
attr unit s
par Net60a.rte[29].port$o[0].channel datarate 100000bps
attr mutable ""
attr unit bps
par Net60a.rte[29].port$o[0].channel ber 0
attr mutable ""
par Net60a.rte[29].port$o[0].channel per 0
attr mutable ""
par Net60a.rte[27].port$o[2].channel typename "\"networks.Net60.C\""
par Net60a.rte[27].port$o[2].channel disabled false
attr mutable ""
par Net60a.rte[27].port$o[2].channel delay 0.02s
attr mutable ""
attr unit s
par Net60a.rte[27].port$o[2].channel datarate 100000bps
attr mutable ""
attr unit bps
par Net60a.rte[27].port$o[2].channel ber 0
attr mutable ""
par Net60a.rte[27].port$o[2].channel per 0
attr mutable ""
par Net60a.rte[30].port$o[0].channel typename "\"networks.Net60.C\""
par Net60a.rte[30].port$o[0].channel disabled false
attr mutable ""
par Net60a.rte[30].port$o[0].channel delay 0.02s
attr mutable ""
attr unit s
par Net60a.rte[30].port$o[0].channel datarate 100000bps
attr mutable ""
attr unit bps
par Net60a.rte[30].port$o[0].channel ber 0
attr mutable ""
par Net60a.rte[30].port$o[0].channel per 0
attr mutable ""
par Net60a.rte[27].port$o[3].channel typename "\"networks.Net60.C\""
par Net60a.rte[27].port$o[3].channel disabled false
attr mutable ""
par Net60a.rte[27].port$o[3].channel delay 0.02s
attr mutable ""
attr unit s
par Net60a.rte[27].port$o[3].channel datarate 100000bps
attr mutable ""
attr unit bps
par Net60a.rte[27].port$o[3].channel ber 0
attr mutable ""
par Net60a.rte[27].port$o[3].channel per 0
attr mutable ""
par Net60a.rte[32].port$o[1].channel typename "\"networks.Net60.C\""
par Net60a.rte[32].port$o[1].channel disabled false
attr mutable ""
par Net60a.rte[32].port$o[1].channel delay 0.02s
attr mutable ""
attr unit s
par Net60a.rte[32].port$o[1].channel datarate 100000bps
attr mutable ""
attr unit bps
par Net60a.rte[32].port$o[1].channel ber 0
attr mutable ""
par Net60a.rte[32].port$o[1].channel per 0
attr mutable ""
par Net60a.rte[28].port$o[1].channel typename "\"networks.Net60.C\""
par Net60a.rte[28].port$o[1].channel disabled false
attr mutable ""
par Net60a.rte[28].port$o[1].channel delay 0.02s
attr mutable ""
attr unit s
par Net60a.rte[28].port$o[1].channel datarate 100000bps
attr mutable ""
attr unit bps
par Net60a.rte[28].port$o[1].channel ber 0
attr mutable ""
par Net60a.rte[28].port$o[1].channel per 0
attr mutable ""
par Net60a.rte[29].port$o[1].channel typename "\"networks.Net60.C\""
par Net60a.rte[29].port$o[1].channel disabled false
attr mutable ""
par Net60a.rte[29].port$o[1].channel delay 0.02s
attr mutable ""
attr unit s
par Net60a.rte[29].port$o[1].channel datarate 100000bps
attr mutable ""
attr unit bps
par Net60a.rte[29].port$o[1].channel ber 0
attr mutable ""
par Net60a.rte[29].port$o[1].channel per 0
attr mutable ""
par Net60a.rte[28].port$o[2].channel typename "\"networks.Net60.C\""
par Net60a.rte[28].port$o[2].channel disabled false
attr mutable ""
par Net60a.rte[28].port$o[2].channel delay 0.02s
attr mutable ""
attr unit s
par Net60a.rte[28].port$o[2].channel datarate 100000bps
attr mutable ""
attr unit bps
par Net60a.rte[28].port$o[2].channel ber 0
attr mutable ""
par Net60a.rte[28].port$o[2].channel per 0
attr mutable ""
par Net60a.rte[31].port$o[0].channel typename "\"networks.Net60.C\""
par Net60a.rte[31].port$o[0].channel disabled false
attr mutable ""
par Net60a.rte[31].port$o[0].channel delay 0.02s
attr mutable ""
attr unit s
par Net60a.rte[31].port$o[0].channel datarate 100000bps
attr mutable ""
attr unit bps
par Net60a.rte[31].port$o[0].channel ber 0
attr mutable ""
par Net60a.rte[31].port$o[0].channel per 0
attr mutable ""
par Net60a.rte[29].port$o[2].channel typename "\"networks.Net60.C\""
par Net60a.rte[29].port$o[2].channel disabled false
attr mutable ""
par Net60a.rte[29].port$o[2].channel delay 0.02s
attr mutable ""
attr unit s
par Net60a.rte[29].port$o[2].channel datarate 100000bps
attr mutable ""
attr unit bps
par Net60a.rte[29].port$o[2].channel ber 0
attr mutable ""
par Net60a.rte[29].port$o[2].channel per 0
attr mutable ""
par Net60a.rte[31].port$o[1].channel typename "\"networks.Net60.C\""
par Net60a.rte[31].port$o[1].channel disabled false
attr mutable ""
par Net60a.rte[31].port$o[1].channel delay 0.02s
attr mutable ""
attr unit s
par Net60a.rte[31].port$o[1].channel datarate 100000bps
attr mutable ""
attr unit bps
par Net60a.rte[31].port$o[1].channel ber 0
attr mutable ""
par Net60a.rte[31].port$o[1].channel per 0
attr mutable ""
par Net60a.rte[30].port$o[1].channel typename "\"networks.Net60.C\""
par Net60a.rte[30].port$o[1].channel disabled false
attr mutable ""
par Net60a.rte[30].port$o[1].channel delay 0.02s
attr mutable ""
attr unit s
par Net60a.rte[30].port$o[1].channel datarate 100000bps
attr mutable ""
attr unit bps
par Net60a.rte[30].port$o[1].channel ber 0
attr mutable ""
par Net60a.rte[30].port$o[1].channel per 0
attr mutable ""
par Net60a.rte[36].port$o[0].channel typename "\"networks.Net60.C\""
par Net60a.rte[36].port$o[0].channel disabled false
attr mutable ""
par Net60a.rte[36].port$o[0].channel delay 0.02s
attr mutable ""
attr unit s
par Net60a.rte[36].port$o[0].channel datarate 100000bps
attr mutable ""
attr unit bps
par Net60a.rte[36].port$o[0].channel ber 0
attr mutable ""
par Net60a.rte[36].port$o[0].channel per 0
attr mutable ""
par Net60a.rte[31].port$o[2].channel typename "\"networks.Net60.C\""
par Net60a.rte[31].port$o[2].channel disabled false
attr mutable ""
par Net60a.rte[31].port$o[2].channel delay 0.02s
attr mutable ""
attr unit s
par Net60a.rte[31].port$o[2].channel datarate 100000bps
attr mutable ""
attr unit bps
par Net60a.rte[31].port$o[2].channel ber 0
attr mutable ""
par Net60a.rte[31].port$o[2].channel per 0
attr mutable ""
par Net60a.rte[33].port$o[0].channel typename "\"networks.Net60.C\""
par Net60a.rte[33].port$o[0].channel disabled false
attr mutable ""
par Net60a.rte[33].port$o[0].channel delay 0.02s
attr mutable ""
attr unit s
par Net60a.rte[33].port$o[0].channel datarate 100000bps
attr mutable ""
attr unit bps
par Net60a.rte[33].port$o[0].channel ber 0
attr mutable ""
par Net60a.rte[33].port$o[0].channel per 0
attr mutable ""
par Net60a.rte[32].port$o[2].channel typename "\"networks.Net60.C\""
par Net60a.rte[32].port$o[2].channel disabled false
attr mutable ""
par Net60a.rte[32].port$o[2].channel delay 0.02s
attr mutable ""
attr unit s
par Net60a.rte[32].port$o[2].channel datarate 100000bps
attr mutable ""
attr unit bps
par Net60a.rte[32].port$o[2].channel ber 0
attr mutable ""
par Net60a.rte[32].port$o[2].channel per 0
attr mutable ""
par Net60a.rte[34].port$o[0].channel typename "\"networks.Net60.C\""
par Net60a.rte[34].port$o[0].channel disabled false
attr mutable ""
par Net60a.rte[34].port$o[0].channel delay 0.02s
attr mutable ""
attr unit s
par Net60a.rte[34].port$o[0].channel datarate 100000bps
attr mutable ""
attr unit bps
par Net60a.rte[34].port$o[0].channel ber 0
attr mutable ""
par Net60a.rte[34].port$o[0].channel per 0
attr mutable ""
par Net60a.rte[33].port$o[1].channel typename "\"networks.Net60.C\""
par Net60a.rte[33].port$o[1].channel disabled false
attr mutable ""
par Net60a.rte[33].port$o[1].channel delay 0.02s
attr mutable ""
attr unit s
par Net60a.rte[33].port$o[1].channel datarate 100000bps
attr mutable ""
attr unit bps
par Net60a.rte[33].port$o[1].channel ber 0
attr mutable ""
par Net60a.rte[33].port$o[1].channel per 0
attr mutable ""
par Net60a.rte[37].port$o[0].channel typename "\"networks.Net60.C\""
par Net60a.rte[37].port$o[0].channel disabled false
attr mutable ""
par Net60a.rte[37].port$o[0].channel delay 0.02s
attr mutable ""
attr unit s
par Net60a.rte[37].port$o[0].channel datarate 100000bps
attr mutable ""
attr unit bps
par Net60a.rte[37].port$o[0].channel ber 0
attr mutable ""
par Net60a.rte[37].port$o[0].channel per 0
attr mutable ""
par Net60a.rte[34].port$o[1].channel typename "\"networks.Net60.C\""
par Net60a.rte[34].port$o[1].channel disabled false
attr mutable ""
par Net60a.rte[34].port$o[1].channel delay 0.02s
attr mutable ""
attr unit s
par Net60a.rte[34].port$o[1].channel datarate 100000bps
attr mutable ""
attr unit bps
par Net60a.rte[34].port$o[1].channel ber 0
attr mutable ""
par Net60a.rte[34].port$o[1].channel per 0
attr mutable ""
par Net60a.rte[35].port$o[0].channel typename "\"networks.Net60.C\""
par Net60a.rte[35].port$o[0].channel disabled false
attr mutable ""
par Net60a.rte[35].port$o[0].channel delay 0.02s
attr mutable ""
attr unit s
par Net60a.rte[35].port$o[0].channel datarate 100000bps
attr mutable ""
attr unit bps
par Net60a.rte[35].port$o[0].channel ber 0
attr mutable ""
par Net60a.rte[35].port$o[0].channel per 0
attr mutable ""
par Net60a.rte[34].port$o[2].channel typename "\"networks.Net60.C\""
par Net60a.rte[34].port$o[2].channel disabled false
attr mutable ""
par Net60a.rte[34].port$o[2].channel delay 0.02s
attr mutable ""
attr unit s
par Net60a.rte[34].port$o[2].channel datarate 100000bps
attr mutable ""
attr unit bps
par Net60a.rte[34].port$o[2].channel ber 0
attr mutable ""
par Net60a.rte[34].port$o[2].channel per 0
attr mutable ""
par Net60a.rte[40].port$o[0].channel typename "\"networks.Net60.C\""
par Net60a.rte[40].port$o[0].channel disabled false
attr mutable ""
par Net60a.rte[40].port$o[0].channel delay 0.02s
attr mutable ""
attr unit s
par Net60a.rte[40].port$o[0].channel datarate 100000bps
attr mutable ""
attr unit bps
par Net60a.rte[40].port$o[0].channel ber 0
attr mutable ""
par Net60a.rte[40].port$o[0].channel per 0
attr mutable ""
par Net60a.rte[35].port$o[1].channel typename "\"networks.Net60.C\""
par Net60a.rte[35].port$o[1].channel disabled false
attr mutable ""
par Net60a.rte[35].port$o[1].channel delay 0.02s
attr mutable ""
attr unit s
par Net60a.rte[35].port$o[1].channel datarate 100000bps
attr mutable ""
attr unit bps
par Net60a.rte[35].port$o[1].channel ber 0
attr mutable ""
par Net60a.rte[35].port$o[1].channel per 0
attr mutable ""
par Net60a.rte[36].port$o[1].channel typename "\"networks.Net60.C\""
par Net60a.rte[36].port$o[1].channel disabled false
attr mutable ""
par Net60a.rte[36].port$o[1].channel delay 0.02s
attr mutable ""
attr unit s
par Net60a.rte[36].port$o[1].channel datarate 100000bps
attr mutable ""
attr unit bps
par Net60a.rte[36].port$o[1].channel ber 0
attr mutable ""
par Net60a.rte[36].port$o[1].channel per 0
attr mutable ""
par Net60a.rte[35].port$o[2].channel typename "\"networks.Net60.C\""
par Net60a.rte[35].port$o[2].channel disabled false
attr mutable ""
par Net60a.rte[35].port$o[2].channel delay 0.02s
attr mutable ""
attr unit s
par Net60a.rte[35].port$o[2].channel datarate 100000bps
attr mutable ""
attr unit bps
par Net60a.rte[35].port$o[2].channel ber 0
attr mutable ""
par Net60a.rte[35].port$o[2].channel per 0
attr mutable ""
par Net60a.rte[39].port$o[0].channel typename "\"networks.Net60.C\""
par Net60a.rte[39].port$o[0].channel disabled false
attr mutable ""
par Net60a.rte[39].port$o[0].channel delay 0.02s
attr mutable ""
attr unit s
par Net60a.rte[39].port$o[0].channel datarate 100000bps
attr mutable ""
attr unit bps
par Net60a.rte[39].port$o[0].channel ber 0
attr mutable ""
par Net60a.rte[39].port$o[0].channel per 0
attr mutable ""
par Net60a.rte[36].port$o[2].channel typename "\"networks.Net60.C\""
par Net60a.rte[36].port$o[2].channel disabled false
attr mutable ""
par Net60a.rte[36].port$o[2].channel delay 0.02s
attr mutable ""
attr unit s
par Net60a.rte[36].port$o[2].channel datarate 100000bps
attr mutable ""
attr unit bps
par Net60a.rte[36].port$o[2].channel ber 0
attr mutable ""
par Net60a.rte[36].port$o[2].channel per 0
attr mutable ""
par Net60a.rte[37].port$o[1].channel typename "\"networks.Net60.C\""
par Net60a.rte[37].port$o[1].channel disabled false
attr mutable ""
par Net60a.rte[37].port$o[1].channel delay 0.02s
attr mutable ""
attr unit s
par Net60a.rte[37].port$o[1].channel datarate 100000bps
attr mutable ""
attr unit bps
par Net60a.rte[37].port$o[1].channel ber 0
attr mutable ""
par Net60a.rte[37].port$o[1].channel per 0
attr mutable ""
par Net60a.rte[37].port$o[2].channel typename "\"networks.Net60.C\""
par Net60a.rte[37].port$o[2].channel disabled false
attr mutable ""
par Net60a.rte[37].port$o[2].channel delay 0.02s
attr mutable ""
attr unit s
par Net60a.rte[37].port$o[2].channel datarate 100000bps
attr mutable ""
attr unit bps
par Net60a.rte[37].port$o[2].channel ber 0
attr mutable ""
par Net60a.rte[37].port$o[2].channel per 0
attr mutable ""
par Net60a.rte[38].port$o[0].channel typename "\"networks.Net60.C\""
par Net60a.rte[38].port$o[0].channel disabled false
attr mutable ""
par Net60a.rte[38].port$o[0].channel delay 0.02s
attr mutable ""
attr unit s
par Net60a.rte[38].port$o[0].channel datarate 100000bps
attr mutable ""
attr unit bps
par Net60a.rte[38].port$o[0].channel ber 0
attr mutable ""
par Net60a.rte[38].port$o[0].channel per 0
attr mutable ""
par Net60a.rte[38].port$o[1].channel typename "\"networks.Net60.C\""
par Net60a.rte[38].port$o[1].channel disabled false
attr mutable ""
par Net60a.rte[38].port$o[1].channel delay 0.02s
attr mutable ""
attr unit s
par Net60a.rte[38].port$o[1].channel datarate 100000bps
attr mutable ""
attr unit bps
par Net60a.rte[38].port$o[1].channel ber 0
attr mutable ""
par Net60a.rte[38].port$o[1].channel per 0
attr mutable ""
par Net60a.rte[39].port$o[1].channel typename "\"networks.Net60.C\""
par Net60a.rte[39].port$o[1].channel disabled false
attr mutable ""
par Net60a.rte[39].port$o[1].channel delay 0.02s
attr mutable ""
attr unit s
par Net60a.rte[39].port$o[1].channel datarate 100000bps
attr mutable ""
attr unit bps
par Net60a.rte[39].port$o[1].channel ber 0
attr mutable ""
par Net60a.rte[39].port$o[1].channel per 0
attr mutable ""
par Net60a.rte[38].port$o[2].channel typename "\"networks.Net60.C\""
par Net60a.rte[38].port$o[2].channel disabled false
attr mutable ""
par Net60a.rte[38].port$o[2].channel delay 0.02s
attr mutable ""
attr unit s
par Net60a.rte[38].port$o[2].channel datarate 100000bps
attr mutable ""
attr unit bps
par Net60a.rte[38].port$o[2].channel ber 0
attr mutable ""
par Net60a.rte[38].port$o[2].channel per 0
attr mutable ""
par Net60a.rte[42].port$o[0].channel typename "\"networks.Net60.C\""
par Net60a.rte[42].port$o[0].channel disabled false
attr mutable ""
par Net60a.rte[42].port$o[0].channel delay 0.02s
attr mutable ""
attr unit s
par Net60a.rte[42].port$o[0].channel datarate 100000bps
attr mutable ""
attr unit bps
par Net60a.rte[42].port$o[0].channel ber 0
attr mutable ""
par Net60a.rte[42].port$o[0].channel per 0
attr mutable ""
par Net60a.rte[39].port$o[2].channel typename "\"networks.Net60.C\""
par Net60a.rte[39].port$o[2].channel disabled false
attr mutable ""
par Net60a.rte[39].port$o[2].channel delay 0.02s
attr mutable ""
attr unit s
par Net60a.rte[39].port$o[2].channel datarate 100000bps
attr mutable ""
attr unit bps
par Net60a.rte[39].port$o[2].channel ber 0
attr mutable ""
par Net60a.rte[39].port$o[2].channel per 0
attr mutable ""
par Net60a.rte[40].port$o[1].channel typename "\"networks.Net60.C\""
par Net60a.rte[40].port$o[1].channel disabled false
attr mutable ""
par Net60a.rte[40].port$o[1].channel delay 0.02s
attr mutable ""
attr unit s
par Net60a.rte[40].port$o[1].channel datarate 100000bps
attr mutable ""
attr unit bps
par Net60a.rte[40].port$o[1].channel ber 0
attr mutable ""
par Net60a.rte[40].port$o[1].channel per 0
attr mutable ""
par Net60a.rte[39].port$o[3].channel typename "\"networks.Net60.C\""
par Net60a.rte[39].port$o[3].channel disabled false
attr mutable ""
par Net60a.rte[39].port$o[3].channel delay 0.02s
attr mutable ""
attr unit s
par Net60a.rte[39].port$o[3].channel datarate 100000bps
attr mutable ""
attr unit bps
par Net60a.rte[39].port$o[3].channel ber 0
attr mutable ""
par Net60a.rte[39].port$o[3].channel per 0
attr mutable ""
par Net60a.rte[41].port$o[0].channel typename "\"networks.Net60.C\""
par Net60a.rte[41].port$o[0].channel disabled false
attr mutable ""
par Net60a.rte[41].port$o[0].channel delay 0.02s
attr mutable ""
attr unit s
par Net60a.rte[41].port$o[0].channel datarate 100000bps
attr mutable ""
attr unit bps
par Net60a.rte[41].port$o[0].channel ber 0
attr mutable ""
par Net60a.rte[41].port$o[0].channel per 0
attr mutable ""
par Net60a.rte[40].port$o[2].channel typename "\"networks.Net60.C\""
par Net60a.rte[40].port$o[2].channel disabled false
attr mutable ""
par Net60a.rte[40].port$o[2].channel delay 0.02s
attr mutable ""
attr unit s
par Net60a.rte[40].port$o[2].channel datarate 100000bps
attr mutable ""
attr unit bps
par Net60a.rte[40].port$o[2].channel ber 0
attr mutable ""
par Net60a.rte[40].port$o[2].channel per 0
attr mutable ""
par Net60a.rte[43].port$o[0].channel typename "\"networks.Net60.C\""
par Net60a.rte[43].port$o[0].channel disabled false
attr mutable ""
par Net60a.rte[43].port$o[0].channel delay 0.02s
attr mutable ""
attr unit s
par Net60a.rte[43].port$o[0].channel datarate 100000bps
attr mutable ""
attr unit bps
par Net60a.rte[43].port$o[0].channel ber 0
attr mutable ""
par Net60a.rte[43].port$o[0].channel per 0
attr mutable ""
par Net60a.rte[40].port$o[3].channel typename "\"networks.Net60.C\""
par Net60a.rte[40].port$o[3].channel disabled false
attr mutable ""
par Net60a.rte[40].port$o[3].channel delay 0.02s
attr mutable ""
attr unit s
par Net60a.rte[40].port$o[3].channel datarate 100000bps
attr mutable ""
attr unit bps
par Net60a.rte[40].port$o[3].channel ber 0
attr mutable ""
par Net60a.rte[40].port$o[3].channel per 0
attr mutable ""
par Net60a.rte[44].port$o[0].channel typename "\"networks.Net60.C\""
par Net60a.rte[44].port$o[0].channel disabled false
attr mutable ""
par Net60a.rte[44].port$o[0].channel delay 0.02s
attr mutable ""
attr unit s
par Net60a.rte[44].port$o[0].channel datarate 100000bps
attr mutable ""
attr unit bps
par Net60a.rte[44].port$o[0].channel ber 0
attr mutable ""
par Net60a.rte[44].port$o[0].channel per 0
attr mutable ""
par Net60a.rte[40].port$o[4].channel typename "\"networks.Net60.C\""
par Net60a.rte[40].port$o[4].channel disabled false
attr mutable ""
par Net60a.rte[40].port$o[4].channel delay 0.02s
attr mutable ""
attr unit s
par Net60a.rte[40].port$o[4].channel datarate 100000bps
attr mutable ""
attr unit bps
par Net60a.rte[40].port$o[4].channel ber 0
attr mutable ""
par Net60a.rte[40].port$o[4].channel per 0
attr mutable ""
par Net60a.rte[52].port$o[0].channel typename "\"networks.Net60.C\""
par Net60a.rte[52].port$o[0].channel disabled false
attr mutable ""
par Net60a.rte[52].port$o[0].channel delay 0.02s
attr mutable ""
attr unit s
par Net60a.rte[52].port$o[0].channel datarate 100000bps
attr mutable ""
attr unit bps
par Net60a.rte[52].port$o[0].channel ber 0
attr mutable ""
par Net60a.rte[52].port$o[0].channel per 0
attr mutable ""
par Net60a.rte[41].port$o[1].channel typename "\"networks.Net60.C\""
par Net60a.rte[41].port$o[1].channel disabled false
attr mutable ""
par Net60a.rte[41].port$o[1].channel delay 0.02s
attr mutable ""
attr unit s
par Net60a.rte[41].port$o[1].channel datarate 100000bps
attr mutable ""
attr unit bps
par Net60a.rte[41].port$o[1].channel ber 0
attr mutable ""
par Net60a.rte[41].port$o[1].channel per 0
attr mutable ""
par Net60a.rte[42].port$o[1].channel typename "\"networks.Net60.C\""
par Net60a.rte[42].port$o[1].channel disabled false
attr mutable ""
par Net60a.rte[42].port$o[1].channel delay 0.02s
attr mutable ""
attr unit s
par Net60a.rte[42].port$o[1].channel datarate 100000bps
attr mutable ""
attr unit bps
par Net60a.rte[42].port$o[1].channel ber 0
attr mutable ""
par Net60a.rte[42].port$o[1].channel per 0
attr mutable ""
par Net60a.rte[41].port$o[2].channel typename "\"networks.Net60.C\""
par Net60a.rte[41].port$o[2].channel disabled false
attr mutable ""
par Net60a.rte[41].port$o[2].channel delay 0.02s
attr mutable ""
attr unit s
par Net60a.rte[41].port$o[2].channel datarate 100000bps
attr mutable ""
attr unit bps
par Net60a.rte[41].port$o[2].channel ber 0
attr mutable ""
par Net60a.rte[41].port$o[2].channel per 0
attr mutable ""
par Net60a.rte[43].port$o[1].channel typename "\"networks.Net60.C\""
par Net60a.rte[43].port$o[1].channel disabled false
attr mutable ""
par Net60a.rte[43].port$o[1].channel delay 0.02s
attr mutable ""
attr unit s
par Net60a.rte[43].port$o[1].channel datarate 100000bps
attr mutable ""
attr unit bps
par Net60a.rte[43].port$o[1].channel ber 0
attr mutable ""
par Net60a.rte[43].port$o[1].channel per 0
attr mutable ""
par Net60a.rte[42].port$o[2].channel typename "\"networks.Net60.C\""
par Net60a.rte[42].port$o[2].channel disabled false
attr mutable ""
par Net60a.rte[42].port$o[2].channel delay 0.02s
attr mutable ""
attr unit s
par Net60a.rte[42].port$o[2].channel datarate 100000bps
attr mutable ""
attr unit bps
par Net60a.rte[42].port$o[2].channel ber 0
attr mutable ""
par Net60a.rte[42].port$o[2].channel per 0
attr mutable ""
par Net60a.rte[43].port$o[2].channel typename "\"networks.Net60.C\""
par Net60a.rte[43].port$o[2].channel disabled false
attr mutable ""
par Net60a.rte[43].port$o[2].channel delay 0.02s
attr mutable ""
attr unit s
par Net60a.rte[43].port$o[2].channel datarate 100000bps
attr mutable ""
attr unit bps
par Net60a.rte[43].port$o[2].channel ber 0
attr mutable ""
par Net60a.rte[43].port$o[2].channel per 0
attr mutable ""
par Net60a.rte[43].port$o[3].channel typename "\"networks.Net60.C\""
par Net60a.rte[43].port$o[3].channel disabled false
attr mutable ""
par Net60a.rte[43].port$o[3].channel delay 0.02s
attr mutable ""
attr unit s
par Net60a.rte[43].port$o[3].channel datarate 100000bps
attr mutable ""
attr unit bps
par Net60a.rte[43].port$o[3].channel ber 0
attr mutable ""
par Net60a.rte[43].port$o[3].channel per 0
attr mutable ""
par Net60a.rte[46].port$o[0].channel typename "\"networks.Net60.C\""
par Net60a.rte[46].port$o[0].channel disabled false
attr mutable ""
par Net60a.rte[46].port$o[0].channel delay 0.02s
attr mutable ""
attr unit s
par Net60a.rte[46].port$o[0].channel datarate 100000bps
attr mutable ""
attr unit bps
par Net60a.rte[46].port$o[0].channel ber 0
attr mutable ""
par Net60a.rte[46].port$o[0].channel per 0
attr mutable ""
par Net60a.rte[44].port$o[1].channel typename "\"networks.Net60.C\""
par Net60a.rte[44].port$o[1].channel disabled false
attr mutable ""
par Net60a.rte[44].port$o[1].channel delay 0.02s
attr mutable ""
attr unit s
par Net60a.rte[44].port$o[1].channel datarate 100000bps
attr mutable ""
attr unit bps
par Net60a.rte[44].port$o[1].channel ber 0
attr mutable ""
par Net60a.rte[44].port$o[1].channel per 0
attr mutable ""
par Net60a.rte[45].port$o[0].channel typename "\"networks.Net60.C\""
par Net60a.rte[45].port$o[0].channel disabled false
attr mutable ""
par Net60a.rte[45].port$o[0].channel delay 0.02s
attr mutable ""
attr unit s
par Net60a.rte[45].port$o[0].channel datarate 100000bps
attr mutable ""
attr unit bps
par Net60a.rte[45].port$o[0].channel ber 0
attr mutable ""
par Net60a.rte[45].port$o[0].channel per 0
attr mutable ""
par Net60a.rte[44].port$o[2].channel typename "\"networks.Net60.C\""
par Net60a.rte[44].port$o[2].channel disabled false
attr mutable ""
par Net60a.rte[44].port$o[2].channel delay 0.02s
attr mutable ""
attr unit s
par Net60a.rte[44].port$o[2].channel datarate 100000bps
attr mutable ""
attr unit bps
par Net60a.rte[44].port$o[2].channel ber 0
attr mutable ""
par Net60a.rte[44].port$o[2].channel per 0
attr mutable ""
par Net60a.rte[47].port$o[0].channel typename "\"networks.Net60.C\""
par Net60a.rte[47].port$o[0].channel disabled false
attr mutable ""
par Net60a.rte[47].port$o[0].channel delay 0.02s
attr mutable ""
attr unit s
par Net60a.rte[47].port$o[0].channel datarate 100000bps
attr mutable ""
attr unit bps
par Net60a.rte[47].port$o[0].channel ber 0
attr mutable ""
par Net60a.rte[47].port$o[0].channel per 0
attr mutable ""
par Net60a.rte[45].port$o[1].channel typename "\"networks.Net60.C\""
par Net60a.rte[45].port$o[1].channel disabled false
attr mutable ""
par Net60a.rte[45].port$o[1].channel delay 0.02s
attr mutable ""
attr unit s
par Net60a.rte[45].port$o[1].channel datarate 100000bps
attr mutable ""
attr unit bps
par Net60a.rte[45].port$o[1].channel ber 0
attr mutable ""
par Net60a.rte[45].port$o[1].channel per 0
attr mutable ""
par Net60a.rte[46].port$o[1].channel typename "\"networks.Net60.C\""
par Net60a.rte[46].port$o[1].channel disabled false
attr mutable ""
par Net60a.rte[46].port$o[1].channel delay 0.02s
attr mutable ""
attr unit s
par Net60a.rte[46].port$o[1].channel datarate 100000bps
attr mutable ""
attr unit bps
par Net60a.rte[46].port$o[1].channel ber 0
attr mutable ""
par Net60a.rte[46].port$o[1].channel per 0
attr mutable ""
par Net60a.rte[46].port$o[2].channel typename "\"networks.Net60.C\""
par Net60a.rte[46].port$o[2].channel disabled false
attr mutable ""
par Net60a.rte[46].port$o[2].channel delay 0.02s
attr mutable ""
attr unit s
par Net60a.rte[46].port$o[2].channel datarate 100000bps
attr mutable ""
attr unit bps
par Net60a.rte[46].port$o[2].channel ber 0
attr mutable ""
par Net60a.rte[46].port$o[2].channel per 0
attr mutable ""
par Net60a.rte[49].port$o[0].channel typename "\"networks.Net60.C\""
par Net60a.rte[49].port$o[0].channel disabled false
attr mutable ""
par Net60a.rte[49].port$o[0].channel delay 0.02s
attr mutable ""
attr unit s
par Net60a.rte[49].port$o[0].channel datarate 100000bps
attr mutable ""
attr unit bps
par Net60a.rte[49].port$o[0].channel ber 0
attr mutable ""
par Net60a.rte[49].port$o[0].channel per 0
attr mutable ""
par Net60a.rte[47].port$o[1].channel typename "\"networks.Net60.C\""
par Net60a.rte[47].port$o[1].channel disabled false
attr mutable ""
par Net60a.rte[47].port$o[1].channel delay 0.02s
attr mutable ""
attr unit s
par Net60a.rte[47].port$o[1].channel datarate 100000bps
attr mutable ""
attr unit bps
par Net60a.rte[47].port$o[1].channel ber 0
attr mutable ""
par Net60a.rte[47].port$o[1].channel per 0
attr mutable ""
par Net60a.rte[48].port$o[0].channel typename "\"networks.Net60.C\""
par Net60a.rte[48].port$o[0].channel disabled false
attr mutable ""
par Net60a.rte[48].port$o[0].channel delay 0.02s
attr mutable ""
attr unit s
par Net60a.rte[48].port$o[0].channel datarate 100000bps
attr mutable ""
attr unit bps
par Net60a.rte[48].port$o[0].channel ber 0
attr mutable ""
par Net60a.rte[48].port$o[0].channel per 0
attr mutable ""
par Net60a.rte[48].port$o[1].channel typename "\"networks.Net60.C\""
par Net60a.rte[48].port$o[1].channel disabled false
attr mutable ""
par Net60a.rte[48].port$o[1].channel delay 0.02s
attr mutable ""
attr unit s
par Net60a.rte[48].port$o[1].channel datarate 100000bps
attr mutable ""
attr unit bps
par Net60a.rte[48].port$o[1].channel ber 0
attr mutable ""
par Net60a.rte[48].port$o[1].channel per 0
attr mutable ""
par Net60a.rte[50].port$o[0].channel typename "\"networks.Net60.C\""
par Net60a.rte[50].port$o[0].channel disabled false
attr mutable ""
par Net60a.rte[50].port$o[0].channel delay 0.02s
attr mutable ""
attr unit s
par Net60a.rte[50].port$o[0].channel datarate 100000bps
attr mutable ""
attr unit bps
par Net60a.rte[50].port$o[0].channel ber 0
attr mutable ""
par Net60a.rte[50].port$o[0].channel per 0
attr mutable ""
par Net60a.rte[48].port$o[2].channel typename "\"networks.Net60.C\""
par Net60a.rte[48].port$o[2].channel disabled false
attr mutable ""
par Net60a.rte[48].port$o[2].channel delay 0.02s
attr mutable ""
attr unit s
par Net60a.rte[48].port$o[2].channel datarate 100000bps
attr mutable ""
attr unit bps
par Net60a.rte[48].port$o[2].channel ber 0
attr mutable ""
par Net60a.rte[48].port$o[2].channel per 0
attr mutable ""
par Net60a.rte[51].port$o[0].channel typename "\"networks.Net60.C\""
par Net60a.rte[51].port$o[0].channel disabled false
attr mutable ""
par Net60a.rte[51].port$o[0].channel delay 0.02s
attr mutable ""
attr unit s
par Net60a.rte[51].port$o[0].channel datarate 100000bps
attr mutable ""
attr unit bps
par Net60a.rte[51].port$o[0].channel ber 0
attr mutable ""
par Net60a.rte[51].port$o[0].channel per 0
attr mutable ""
par Net60a.rte[49].port$o[1].channel typename "\"networks.Net60.C\""
par Net60a.rte[49].port$o[1].channel disabled false
attr mutable ""
par Net60a.rte[49].port$o[1].channel delay 0.02s
attr mutable ""
attr unit s
par Net60a.rte[49].port$o[1].channel datarate 100000bps
attr mutable ""
attr unit bps
par Net60a.rte[49].port$o[1].channel ber 0
attr mutable ""
par Net60a.rte[49].port$o[1].channel per 0
attr mutable ""
par Net60a.rte[50].port$o[1].channel typename "\"networks.Net60.C\""
par Net60a.rte[50].port$o[1].channel disabled false
attr mutable ""
par Net60a.rte[50].port$o[1].channel delay 0.02s
attr mutable ""
attr unit s
par Net60a.rte[50].port$o[1].channel datarate 100000bps
attr mutable ""
attr unit bps
par Net60a.rte[50].port$o[1].channel ber 0
attr mutable ""
par Net60a.rte[50].port$o[1].channel per 0
attr mutable ""
par Net60a.rte[50].port$o[2].channel typename "\"networks.Net60.C\""
par Net60a.rte[50].port$o[2].channel disabled false
attr mutable ""
par Net60a.rte[50].port$o[2].channel delay 0.02s
attr mutable ""
attr unit s
par Net60a.rte[50].port$o[2].channel datarate 100000bps
attr mutable ""
attr unit bps
par Net60a.rte[50].port$o[2].channel ber 0
attr mutable ""
par Net60a.rte[50].port$o[2].channel per 0
attr mutable ""
par Net60a.rte[53].port$o[0].channel typename "\"networks.Net60.C\""
par Net60a.rte[53].port$o[0].channel disabled false
attr mutable ""
par Net60a.rte[53].port$o[0].channel delay 0.02s
attr mutable ""
attr unit s
par Net60a.rte[53].port$o[0].channel datarate 100000bps
attr mutable ""
attr unit bps
par Net60a.rte[53].port$o[0].channel ber 0
attr mutable ""
par Net60a.rte[53].port$o[0].channel per 0
attr mutable ""
par Net60a.rte[51].port$o[1].channel typename "\"networks.Net60.C\""
par Net60a.rte[51].port$o[1].channel disabled false
attr mutable ""
par Net60a.rte[51].port$o[1].channel delay 0.02s
attr mutable ""
attr unit s
par Net60a.rte[51].port$o[1].channel datarate 100000bps
attr mutable ""
attr unit bps
par Net60a.rte[51].port$o[1].channel ber 0
attr mutable ""
par Net60a.rte[51].port$o[1].channel per 0
attr mutable ""
par Net60a.rte[52].port$o[1].channel typename "\"networks.Net60.C\""
par Net60a.rte[52].port$o[1].channel disabled false
attr mutable ""
par Net60a.rte[52].port$o[1].channel delay 0.02s
attr mutable ""
attr unit s
par Net60a.rte[52].port$o[1].channel datarate 100000bps
attr mutable ""
attr unit bps
par Net60a.rte[52].port$o[1].channel ber 0
attr mutable ""
par Net60a.rte[52].port$o[1].channel per 0
attr mutable ""
par Net60a.rte[51].port$o[2].channel typename "\"networks.Net60.C\""
par Net60a.rte[51].port$o[2].channel disabled false
attr mutable ""
par Net60a.rte[51].port$o[2].channel delay 0.02s
attr mutable ""
attr unit s
par Net60a.rte[51].port$o[2].channel datarate 100000bps
attr mutable ""
attr unit bps
par Net60a.rte[51].port$o[2].channel ber 0
attr mutable ""
par Net60a.rte[51].port$o[2].channel per 0
attr mutable ""
par Net60a.rte[53].port$o[1].channel typename "\"networks.Net60.C\""
par Net60a.rte[53].port$o[1].channel disabled false
attr mutable ""
par Net60a.rte[53].port$o[1].channel delay 0.02s
attr mutable ""
attr unit s
par Net60a.rte[53].port$o[1].channel datarate 100000bps
attr mutable ""
attr unit bps
par Net60a.rte[53].port$o[1].channel ber 0
attr mutable ""
par Net60a.rte[53].port$o[1].channel per 0
attr mutable ""
par Net60a.rte[52].port$o[2].channel typename "\"networks.Net60.C\""
par Net60a.rte[52].port$o[2].channel disabled false
attr mutable ""
par Net60a.rte[52].port$o[2].channel delay 0.02s
attr mutable ""
attr unit s
par Net60a.rte[52].port$o[2].channel datarate 100000bps
attr mutable ""
attr unit bps
par Net60a.rte[52].port$o[2].channel ber 0
attr mutable ""
par Net60a.rte[52].port$o[2].channel per 0
attr mutable ""
par Net60a.rte[53].port$o[2].channel typename "\"networks.Net60.C\""
par Net60a.rte[53].port$o[2].channel disabled false
attr mutable ""
par Net60a.rte[53].port$o[2].channel delay 0.02s
attr mutable ""
attr unit s
par Net60a.rte[53].port$o[2].channel datarate 100000bps
attr mutable ""
attr unit bps
par Net60a.rte[53].port$o[2].channel ber 0
attr mutable ""
par Net60a.rte[53].port$o[2].channel per 0
attr mutable ""
par Net60a.rte[52].port$o[3].channel typename "\"networks.Net60.C\""
par Net60a.rte[52].port$o[3].channel disabled false
attr mutable ""
par Net60a.rte[52].port$o[3].channel delay 0.02s
attr mutable ""
attr unit s
par Net60a.rte[52].port$o[3].channel datarate 100000bps
attr mutable ""
attr unit bps
par Net60a.rte[52].port$o[3].channel ber 0
attr mutable ""
par Net60a.rte[52].port$o[3].channel per 0
attr mutable ""
par Net60a.rte[54].port$o[0].channel typename "\"networks.Net60.C\""
par Net60a.rte[54].port$o[0].channel disabled false
attr mutable ""
par Net60a.rte[54].port$o[0].channel delay 0.02s
attr mutable ""
attr unit s
par Net60a.rte[54].port$o[0].channel datarate 100000bps
attr mutable ""
attr unit bps
par Net60a.rte[54].port$o[0].channel ber 0
attr mutable ""
par Net60a.rte[54].port$o[0].channel per 0
attr mutable ""
par Net60a.rte[53].port$o[3].channel typename "\"networks.Net60.C\""
par Net60a.rte[53].port$o[3].channel disabled false
attr mutable ""
par Net60a.rte[53].port$o[3].channel delay 0.02s
attr mutable ""
attr unit s
par Net60a.rte[53].port$o[3].channel datarate 100000bps
attr mutable ""
attr unit bps
par Net60a.rte[53].port$o[3].channel ber 0
attr mutable ""
par Net60a.rte[53].port$o[3].channel per 0
attr mutable ""
par Net60a.rte[56].port$o[0].channel typename "\"networks.Net60.C\""
par Net60a.rte[56].port$o[0].channel disabled false
attr mutable ""
par Net60a.rte[56].port$o[0].channel delay 0.02s
attr mutable ""
attr unit s
par Net60a.rte[56].port$o[0].channel datarate 100000bps
attr mutable ""
attr unit bps
par Net60a.rte[56].port$o[0].channel ber 0
attr mutable ""
par Net60a.rte[56].port$o[0].channel per 0
attr mutable ""
par Net60a.rte[54].port$o[1].channel typename "\"networks.Net60.C\""
par Net60a.rte[54].port$o[1].channel disabled false
attr mutable ""
par Net60a.rte[54].port$o[1].channel delay 0.02s
attr mutable ""
attr unit s
par Net60a.rte[54].port$o[1].channel datarate 100000bps
attr mutable ""
attr unit bps
par Net60a.rte[54].port$o[1].channel ber 0
attr mutable ""
par Net60a.rte[54].port$o[1].channel per 0
attr mutable ""
par Net60a.rte[55].port$o[0].channel typename "\"networks.Net60.C\""
par Net60a.rte[55].port$o[0].channel disabled false
attr mutable ""
par Net60a.rte[55].port$o[0].channel delay 0.02s
attr mutable ""
attr unit s
par Net60a.rte[55].port$o[0].channel datarate 100000bps
attr mutable ""
attr unit bps
par Net60a.rte[55].port$o[0].channel ber 0
attr mutable ""
par Net60a.rte[55].port$o[0].channel per 0
attr mutable ""
par Net60a.rte[55].port$o[1].channel typename "\"networks.Net60.C\""
par Net60a.rte[55].port$o[1].channel disabled false
attr mutable ""
par Net60a.rte[55].port$o[1].channel delay 0.02s
attr mutable ""
attr unit s
par Net60a.rte[55].port$o[1].channel datarate 100000bps
attr mutable ""
attr unit bps
par Net60a.rte[55].port$o[1].channel ber 0
attr mutable ""
par Net60a.rte[55].port$o[1].channel per 0
attr mutable ""
par Net60a.rte[56].port$o[1].channel typename "\"networks.Net60.C\""
par Net60a.rte[56].port$o[1].channel disabled false
attr mutable ""
par Net60a.rte[56].port$o[1].channel delay 0.02s
attr mutable ""
attr unit s
par Net60a.rte[56].port$o[1].channel datarate 100000bps
attr mutable ""
attr unit bps
par Net60a.rte[56].port$o[1].channel ber 0
attr mutable ""
par Net60a.rte[56].port$o[1].channel per 0
attr mutable ""
par Net60a.rte[55].port$o[2].channel typename "\"ned.DatarateChannel\""
par Net60a.rte[55].port$o[2].channel disabled false
attr mutable ""
par Net60a.rte[55].port$o[2].channel delay 0.0001s
attr mutable ""
attr unit s
par Net60a.rte[55].port$o[2].channel datarate 1e+09bps
attr mutable ""
attr unit bps
par Net60a.rte[55].port$o[2].channel ber 0
attr mutable ""
par Net60a.rte[55].port$o[2].channel per 0
attr mutable ""
par Net60a.rte[0].port$o[1].channel typename "\"ned.DatarateChannel\""
par Net60a.rte[0].port$o[1].channel disabled false
attr mutable ""
par Net60a.rte[0].port$o[1].channel delay 0.0001s
attr mutable ""
attr unit s
par Net60a.rte[0].port$o[1].channel datarate 1e+09bps
attr mutable ""
attr unit bps
par Net60a.rte[0].port$o[1].channel ber 0
attr mutable ""
par Net60a.rte[0].port$o[1].channel per 0
attr mutable ""
par Net60a.rte[0].app typename "\"node.App\""
par Net60a.rte[0].app address 0
par Net60a.rte[0].app destAddresses "\"1\""
par Net60a.rte[0].app sendIaTime "uniform(1ms, 5ms)"
attr unit s
par Net60a.rte[0].app packetLength 4096byte
attr unit byte
scalar Net60a.rte[0].app hopCount:mean nan
attr interpolationmode none
attr recordingmode mean
attr title "hop count of arrived packets, mean"
scalar Net60a.rte[0].app hopCount:max nan
attr interpolationmode none
attr recordingmode max
attr title "hop count of arrived packets, max"
scalar Net60a.rte[0].app endToEndDelay:mean nan
attr interpolationmode none
attr recordingmode mean
attr title "end-to-end delay of arrived packets, mean"
attr unit s
scalar Net60a.rte[0].app endToEndDelay:max nan
attr interpolationmode none
attr recordingmode max
attr title "end-to-end delay of arrived packets, max"
attr unit s
par Net60a.rte[0].routing typename "\"node.Routing\""
statistic Net60a.rte[0].routing outputIf:histogram
field count 97160
field mean 0
field stddev 0
field min 0
field max 0
field sum 0
field sqrsum 0
attr interpolationmode none
attr recordingmode histogram
attr title "output interface for each routed packet"
bin	-inf	0
bin	-0.5	0
bin	-0.48	0
bin	-0.46	0
bin	-0.44	0
bin	-0.42	0
bin	-0.4	0
bin	-0.38	0
bin	-0.36	0
bin	-0.34	0
bin	-0.32	0
bin	-0.3	0
bin	-0.28	0
bin	-0.26	0
bin	-0.24	0
bin	-0.22	0
bin	-0.2	0
bin	-0.18	0
bin	-0.16	0
bin	-0.14	0
bin	-0.12	0
bin	-0.1	0
bin	-0.08	0
bin	-0.06	0
bin	-0.04	0
bin	-0.02	0
bin	0	97160
bin	0.02	0
bin	0.04	0
bin	0.06	0
bin	0.08	0
bin	0.1	0
bin	0.12	0
bin	0.14	0
bin	0.16	0
bin	0.18	0
bin	0.2	0
bin	0.22	0
bin	0.24	0
bin	0.26	0
bin	0.28	0
bin	0.3	0
bin	0.32	0
bin	0.34	0
bin	0.36	0
bin	0.38	0
bin	0.4	0
bin	0.42	0
bin	0.44	0
bin	0.46	0
bin	0.48	0
bin	0.5	0
scalar Net60a.rte[0].routing drop:count 0
attr interpolationmode none
attr recordingmode count
attr title "dropped packet byte length, count"
attr unit bytes
scalar Net60a.rte[0].routing drop:sum 0
attr interpolationmode none
attr recordingmode sum
attr title "dropped packet byte length, sum"
attr unit bytes
par Net60a.rte[0].queue[0] typename "\"node.L2Queue\""
par Net60a.rte[0].queue[0] frameCapacity 3
par Net60a.rte[0].queue[0] useCutThroughSwitching false
scalar Net60a.rte[0].queue[0] rxBytes:count 0
attr interpolationmode none
attr recordingmode count
attr title "received packet byte length, count"
attr unit bytes
scalar Net60a.rte[0].queue[0] rxBytes:sum 0
attr interpolationmode none
attr recordingmode sum
attr title "received packet byte length, sum"
attr unit bytes
statistic Net60a.rte[0].queue[0] rxBytes:histogram
field count 0
field mean nan
field stddev nan
field min nan
field max nan
field sum 0
field sqrsum 0
attr interpolationmode none
attr recordingmode histogram
attr title "received packet byte length"
attr unit bytes
bin	-inf	0
bin	0	0
bin	1	0
scalar Net60a.rte[0].queue[0] txBytes:count 441
attr interpolationmode none
attr recordingmode count
attr title "transmitting packet byte length, count"
attr unit bytes
scalar Net60a.rte[0].queue[0] txBytes:sum 1806336
attr interpolationmode none
attr recordingmode sum
attr title "transmitting packet byte length, sum"
attr unit bytes
statistic Net60a.rte[0].queue[0] txBytes:histogram
field count 441
field mean 4096
field stddev 0
field min 4096
field max 4096
field sum 1806336
field sqrsum 7398752256
attr interpolationmode none
attr recordingmode histogram
attr title "transmitting packet byte length"
attr unit bytes
bin	-inf	0
bin	4095	0
bin	4096	441
bin	4097	0
scalar Net60a.rte[0].queue[0] busy:timeavg 0.99997786598807
attr interpolationmode sample-hold
attr recordingmode timeavg
attr title "server busy state, timeavg"
scalar Net60a.rte[0].queue[0] qlen:timeavg 2.9966058336589
attr interpolationmode sample-hold
attr recordingmode timeavg
attr title "queue length, timeavg"
scalar Net60a.rte[0].queue[0] qlen:max 3
attr interpolationmode sample-hold
attr recordingmode max
attr title "queue length, max"
scalar Net60a.rte[0].queue[0] drop:count 96716
attr interpolationmode none
attr recordingmode count
attr title "dropped packet byte length, count"
attr unit bytes
scalar Net60a.rte[0].queue[0] drop:sum 396148736
attr interpolationmode none
attr recordingmode sum
attr title "dropped packet byte length, sum"
attr unit bytes
par Net60a.rte[0].queue[1] typename "\"node.L2Queue\""
par Net60a.rte[0].queue[1] frameCapacity 3
par Net60a.rte[0].queue[1] useCutThroughSwitching false
scalar Net60a.rte[0].queue[1] rxBytes:count 48976
attr interpolationmode none
attr recordingmode count
attr title "received packet byte length, count"
attr unit bytes
scalar Net60a.rte[0].queue[1] rxBytes:sum 200605696
attr interpolationmode none
attr recordingmode sum
attr title "received packet byte length, sum"
attr unit bytes
statistic Net60a.rte[0].queue[1] rxBytes:histogram
field count 48976
field mean 4096
field stddev 0
field min 4096
field max 4096
field sum 200605696
field sqrsum 821680930816
attr interpolationmode none
attr recordingmode histogram
attr title "received packet byte length"
attr unit bytes
bin	-inf	0
bin	4095	0
bin	4096	48976
bin	4097	0
scalar Net60a.rte[0].queue[1] txBytes:count 0
attr interpolationmode none
attr recordingmode count
attr title "transmitting packet byte length, count"
attr unit bytes
scalar Net60a.rte[0].queue[1] txBytes:sum 0
attr interpolationmode none
attr recordingmode sum
attr title "transmitting packet byte length, sum"
attr unit bytes
statistic Net60a.rte[0].queue[1] txBytes:histogram
field count 0
field mean nan
field stddev nan
field min nan
field max nan
field sum 0
field sqrsum 0
attr interpolationmode none
attr recordingmode histogram
attr title "transmitting packet byte length"
attr unit bytes
bin	-inf	0
bin	0	0
bin	1	0
scalar Net60a.rte[0].queue[1] busy:timeavg 0
attr interpolationmode sample-hold
attr recordingmode timeavg
attr title "server busy state, timeavg"
scalar Net60a.rte[0].queue[1] qlen:timeavg 0
attr interpolationmode sample-hold
attr recordingmode timeavg
attr title "queue length, timeavg"
scalar Net60a.rte[0].queue[1] qlen:max 0
attr interpolationmode sample-hold
attr recordingmode max
attr title "queue length, max"
scalar Net60a.rte[0].queue[1] drop:count 0
attr interpolationmode none
attr recordingmode count
attr title "dropped packet byte length, count"
attr unit bytes
scalar Net60a.rte[0].queue[1] drop:sum 0
attr interpolationmode none
attr recordingmode sum
attr title "dropped packet byte length, sum"
attr unit bytes
par Net60a.rte[0] typename "\"node.Node\""
par Net60a.rte[0] address 0
par Net60a.rte[0] appType "\"App\""
par Net60a.rte[1].app typename "\"node.App\""
par Net60a.rte[1].app address 1
par Net60a.rte[1].app destAddresses "\"1\""
par Net60a.rte[1].app sendIaTime "uniform(1ms, 5ms)"
attr unit s
par Net60a.rte[1].app packetLength 4096byte
attr unit byte
scalar Net60a.rte[1].app hopCount:mean 0.031323208659827
attr interpolationmode none
attr recordingmode mean
attr title "hop count of arrived packets, mean"
scalar Net60a.rte[1].app hopCount:max 2
attr interpolationmode none
attr recordingmode max
attr title "hop count of arrived packets, max"
scalar Net60a.rte[1].app endToEndDelay:mean 0.035315993326873
attr interpolationmode none
attr recordingmode mean
attr title "end-to-end delay of arrived packets, mean"
attr unit s
scalar Net60a.rte[1].app endToEndDelay:max 1.330852100196
attr interpolationmode none
attr recordingmode max
attr title "end-to-end delay of arrived packets, max"
attr unit s
par Net60a.rte[1].routing typename "\"node.Routing\""
statistic Net60a.rte[1].routing outputIf:histogram
field count 49516
field mean -1
field stddev 0
field min -1
field max -1
field sum -49516
field sqrsum 49516
attr interpolationmode none
attr recordingmode histogram
attr title "output interface for each routed packet"
bin	-inf	0
bin	-2	0
bin	-1	49516
bin	0	0
scalar Net60a.rte[1].routing drop:count 0
attr interpolationmode none
attr recordingmode count
attr title "dropped packet byte length, count"
attr unit bytes
scalar Net60a.rte[1].routing drop:sum 0
attr interpolationmode none
attr recordingmode sum
attr title "dropped packet byte length, sum"
attr unit bytes
par Net60a.rte[1].queue[0] typename "\"node.L2Queue\""
par Net60a.rte[1].queue[0] frameCapacity 3
par Net60a.rte[1].queue[0] useCutThroughSwitching false
scalar Net60a.rte[1].queue[0] rxBytes:count 440
attr interpolationmode none
attr recordingmode count
attr title "received packet byte length, count"
attr unit bytes
scalar Net60a.rte[1].queue[0] rxBytes:sum 1802240
[...]
attr interpolationmode none
attr recordingmode histogram
attr title "output interface for each routed packet"
bin	-inf	0
bin	0	0
bin	1	48569
bin	2	0
scalar Net60a.rte[54].routing drop:count 0
attr interpolationmode none
attr recordingmode count
attr title "dropped packet byte length, count"
attr unit bytes
scalar Net60a.rte[54].routing drop:sum 0
attr interpolationmode none
attr recordingmode sum
attr title "dropped packet byte length, sum"
attr unit bytes
par Net60a.rte[54].queue[0] typename "\"node.L2Queue\""
par Net60a.rte[54].queue[0] frameCapacity 3
par Net60a.rte[54].queue[0] useCutThroughSwitching false
scalar Net60a.rte[54].queue[0] rxBytes:count 440
attr interpolationmode none
attr recordingmode count
attr title "received packet byte length, count"
attr unit bytes
scalar Net60a.rte[54].queue[0] rxBytes:sum 1802240
attr interpolationmode none
attr recordingmode sum
attr title "received packet byte length, sum"
attr unit bytes
statistic Net60a.rte[54].queue[0] rxBytes:histogram
field count 440
field mean 4096
field stddev 0
field min 4096
field max 4096
field sum 1802240
field sqrsum 7381975040
attr interpolationmode none
attr recordingmode histogram
attr title "received packet byte length"
attr unit bytes
bin	-inf	0
bin	4095	0
bin	4096	440
bin	4097	0
scalar Net60a.rte[54].queue[0] txBytes:count 0
attr interpolationmode none
attr recordingmode count
attr title "transmitting packet byte length, count"
attr unit bytes
scalar Net60a.rte[54].queue[0] txBytes:sum 0
attr interpolationmode none
attr recordingmode sum
attr title "transmitting packet byte length, sum"
attr unit bytes
statistic Net60a.rte[54].queue[0] txBytes:histogram
field count 0
field mean nan
field stddev nan
field min nan
field max nan
field sum 0
field sqrsum 0
attr interpolationmode none
attr recordingmode histogram
attr title "transmitting packet byte length"
attr unit bytes
bin	-inf	0
bin	0	0
bin	1	0
scalar Net60a.rte[54].queue[0] busy:timeavg 0
attr interpolationmode sample-hold
attr recordingmode timeavg
attr title "server busy state, timeavg"
scalar Net60a.rte[54].queue[0] qlen:timeavg 0
attr interpolationmode sample-hold
attr recordingmode timeavg
attr title "queue length, timeavg"
scalar Net60a.rte[54].queue[0] qlen:max 0
attr interpolationmode sample-hold
attr recordingmode max
attr title "queue length, max"
scalar Net60a.rte[54].queue[0] drop:count 0
attr interpolationmode none
attr recordingmode count
attr title "dropped packet byte length, count"
attr unit bytes
scalar Net60a.rte[54].queue[0] drop:sum 0
attr interpolationmode none
attr recordingmode sum
attr title "dropped packet byte length, sum"
attr unit bytes
par Net60a.rte[54].queue[1] typename "\"node.L2Queue\""
par Net60a.rte[54].queue[1] frameCapacity 3
par Net60a.rte[54].queue[1] useCutThroughSwitching false
scalar Net60a.rte[54].queue[1] rxBytes:count 0
attr interpolationmode none
attr recordingmode count
attr title "received packet byte length, count"
attr unit bytes
scalar Net60a.rte[54].queue[1] rxBytes:sum 0
attr interpolationmode none
attr recordingmode sum
attr title "received packet byte length, sum"
attr unit bytes
statistic Net60a.rte[54].queue[1] rxBytes:histogram
field count 0
field mean nan
field stddev nan
field min nan
field max nan
field sum 0
field sqrsum 0
attr interpolationmode none
attr recordingmode histogram
attr title "received packet byte length"
attr unit bytes
bin	-inf	0
bin	0	0
bin	1	0
scalar Net60a.rte[54].queue[1] txBytes:count 441
attr interpolationmode none
attr recordingmode count
attr title "transmitting packet byte length, count"
attr unit bytes
scalar Net60a.rte[54].queue[1] txBytes:sum 1806336
attr interpolationmode none
attr recordingmode sum
attr title "transmitting packet byte length, sum"
attr unit bytes
statistic Net60a.rte[54].queue[1] txBytes:histogram
field count 441
field mean 4096
field stddev 0
field min 4096
field max 4096
field sum 1806336
field sqrsum 7398752256
attr interpolationmode none
attr recordingmode histogram
attr title "transmitting packet byte length"
attr unit bytes
bin	-inf	0
bin	4095	0
bin	4096	441
bin	4097	0
scalar Net60a.rte[54].queue[1] busy:timeavg 0.99996689738465
attr interpolationmode sample-hold
attr recordingmode timeavg
attr title "server busy state, timeavg"
scalar Net60a.rte[54].queue[1] qlen:timeavg 2.9946586136293
attr interpolationmode sample-hold
attr recordingmode timeavg
attr title "queue length, timeavg"
scalar Net60a.rte[54].queue[1] qlen:max 3
attr interpolationmode sample-hold
attr recordingmode max
attr title "queue length, max"
scalar Net60a.rte[54].queue[1] drop:count 48125
attr interpolationmode none
attr recordingmode count
attr title "dropped packet byte length, count"
attr unit bytes
scalar Net60a.rte[54].queue[1] drop:sum 197120000
attr interpolationmode none
attr recordingmode sum
attr title "dropped packet byte length, sum"
attr unit bytes
par Net60a.rte[54] typename "\"node.Node\""
par Net60a.rte[54] address 54
par Net60a.rte[54] appType "\"App\""
par Net60a.rte[55].app typename "\"node.App\""
par Net60a.rte[55].app address 55
par Net60a.rte[55].app destAddresses "\"1\""
par Net60a.rte[55].app sendIaTime "uniform(1ms, 5ms)"
attr unit s
par Net60a.rte[55].app packetLength 4096byte
attr unit byte
scalar Net60a.rte[55].app hopCount:mean nan
attr interpolationmode none
attr recordingmode mean
attr title "hop count of arrived packets, mean"
scalar Net60a.rte[55].app hopCount:max nan
attr interpolationmode none
attr recordingmode max
attr title "hop count of arrived packets, max"
scalar Net60a.rte[55].app endToEndDelay:mean nan
attr interpolationmode none
attr recordingmode mean
attr title "end-to-end delay of arrived packets, mean"
attr unit s
scalar Net60a.rte[55].app endToEndDelay:max nan
attr interpolationmode none
attr recordingmode max
attr title "end-to-end delay of arrived packets, max"
attr unit s
par Net60a.rte[55].routing typename "\"node.Routing\""
statistic Net60a.rte[55].routing outputIf:histogram
field count 48976
field mean 2
field stddev 0
field min 2
field max 2
field sum 97952
field sqrsum 195904
attr interpolationmode none
attr recordingmode histogram
attr title "output interface for each routed packet"
bin	-inf	0
bin	1	0
bin	2	48976
bin	3	0
scalar Net60a.rte[55].routing drop:count 0
attr interpolationmode none
attr recordingmode count
attr title "dropped packet byte length, count"
attr unit bytes
scalar Net60a.rte[55].routing drop:sum 0
attr interpolationmode none
attr recordingmode sum
attr title "dropped packet byte length, sum"
attr unit bytes
par Net60a.rte[55].queue[0] typename "\"node.L2Queue\""
par Net60a.rte[55].queue[0] frameCapacity 3
par Net60a.rte[55].queue[0] useCutThroughSwitching false
scalar Net60a.rte[55].queue[0] rxBytes:count 440
attr interpolationmode none
attr recordingmode count
attr title "received packet byte length, count"
attr unit bytes
scalar Net60a.rte[55].queue[0] rxBytes:sum 1802240
attr interpolationmode none
attr recordingmode sum
attr title "received packet byte length, sum"
attr unit bytes
statistic Net60a.rte[55].queue[0] rxBytes:histogram
field count 440
field mean 4096
field stddev 0
field min 4096
field max 4096
field sum 1802240
field sqrsum 7381975040
attr interpolationmode none
attr recordingmode histogram
attr title "received packet byte length"
attr unit bytes
bin	-inf	0
bin	4095	0
bin	4096	440
bin	4097	0
scalar Net60a.rte[55].queue[0] txBytes:count 0
attr interpolationmode none
attr recordingmode count
attr title "transmitting packet byte length, count"
attr unit bytes
scalar Net60a.rte[55].queue[0] txBytes:sum 0
attr interpolationmode none
attr recordingmode sum
attr title "transmitting packet byte length, sum"
attr unit bytes
statistic Net60a.rte[55].queue[0] txBytes:histogram
field count 0
field mean nan
field stddev nan
field min nan
field max nan
field sum 0
field sqrsum 0
attr interpolationmode none
attr recordingmode histogram
attr title "transmitting packet byte length"
attr unit bytes
bin	-inf	0
bin	0	0
bin	1	0
scalar Net60a.rte[55].queue[0] busy:timeavg 0
attr interpolationmode sample-hold
attr recordingmode timeavg
attr title "server busy state, timeavg"
scalar Net60a.rte[55].queue[0] qlen:timeavg 0
attr interpolationmode sample-hold
attr recordingmode timeavg
attr title "queue length, timeavg"
scalar Net60a.rte[55].queue[0] qlen:max 0
attr interpolationmode sample-hold
attr recordingmode max
attr title "queue length, max"
scalar Net60a.rte[55].queue[0] drop:count 0
attr interpolationmode none
attr recordingmode count
attr title "dropped packet byte length, count"
attr unit bytes
scalar Net60a.rte[55].queue[0] drop:sum 0
attr interpolationmode none
attr recordingmode sum
attr title "dropped packet byte length, sum"
attr unit bytes
par Net60a.rte[55].queue[1] typename "\"node.L2Queue\""
par Net60a.rte[55].queue[1] frameCapacity 3
par Net60a.rte[55].queue[1] useCutThroughSwitching false
scalar Net60a.rte[55].queue[1] rxBytes:count 440
attr interpolationmode none
attr recordingmode count
attr title "received packet byte length, count"
attr unit bytes
scalar Net60a.rte[55].queue[1] rxBytes:sum 1802240
attr interpolationmode none
attr recordingmode sum
attr title "received packet byte length, sum"
attr unit bytes
statistic Net60a.rte[55].queue[1] rxBytes:histogram
field count 440
field mean 4096
field stddev 0
field min 4096
field max 4096
field sum 1802240
field sqrsum 7381975040
attr interpolationmode none
attr recordingmode histogram
attr title "received packet byte length"
attr unit bytes
bin	-inf	0
bin	4095	0
bin	4096	440
bin	4097	0
scalar Net60a.rte[55].queue[1] txBytes:count 0
attr interpolationmode none
attr recordingmode count
attr title "transmitting packet byte length, count"
attr unit bytes
scalar Net60a.rte[55].queue[1] txBytes:sum 0
attr interpolationmode none
attr recordingmode sum
attr title "transmitting packet byte length, sum"
attr unit bytes
statistic Net60a.rte[55].queue[1] txBytes:histogram
field count 0
field mean nan
field stddev nan
field min nan
field max nan
field sum 0
field sqrsum 0
attr interpolationmode none
attr recordingmode histogram
attr title "transmitting packet byte length"
attr unit bytes
bin	-inf	0
bin	0	0
bin	1	0
scalar Net60a.rte[55].queue[1] busy:timeavg 0
attr interpolationmode sample-hold
attr recordingmode timeavg
attr title "server busy state, timeavg"
scalar Net60a.rte[55].queue[1] qlen:timeavg 0
attr interpolationmode sample-hold
attr recordingmode timeavg
attr title "queue length, timeavg"
scalar Net60a.rte[55].queue[1] qlen:max 0
attr interpolationmode sample-hold
attr recordingmode max
attr title "queue length, max"
scalar Net60a.rte[55].queue[1] drop:count 0
attr interpolationmode none
attr recordingmode count
attr title "dropped packet byte length, count"
attr unit bytes
scalar Net60a.rte[55].queue[1] drop:sum 0
attr interpolationmode none
attr recordingmode sum
attr title "dropped packet byte length, sum"
attr unit bytes
par Net60a.rte[55].queue[2] typename "\"node.L2Queue\""
par Net60a.rte[55].queue[2] frameCapacity 3
par Net60a.rte[55].queue[2] useCutThroughSwitching false
scalar Net60a.rte[55].queue[2] rxBytes:count 0
attr interpolationmode none
attr recordingmode count
attr title "received packet byte length, count"
attr unit bytes
scalar Net60a.rte[55].queue[2] rxBytes:sum 0
attr interpolationmode none
attr recordingmode sum
attr title "received packet byte length, sum"
attr unit bytes
statistic Net60a.rte[55].queue[2] rxBytes:histogram
field count 0
field mean nan
field stddev nan
field min nan
field max nan
field sum 0
field sqrsum 0
attr interpolationmode none
attr recordingmode histogram
attr title "received packet byte length"
attr unit bytes
bin	-inf	0
bin	0	0
bin	1	0
scalar Net60a.rte[55].queue[2] txBytes:count 48976
attr interpolationmode none
attr recordingmode count
attr title "transmitting packet byte length, count"
attr unit bytes
scalar Net60a.rte[55].queue[2] txBytes:sum 200605696
attr interpolationmode none
attr recordingmode sum
attr title "transmitting packet byte length, sum"
attr unit bytes
statistic Net60a.rte[55].queue[2] txBytes:histogram
field count 48976
field mean 4096
field stddev 0
field min 4096
field max 4096
field sum 200605696
field sqrsum 821680930816
attr interpolationmode none
attr recordingmode histogram
attr title "transmitting packet byte length"
attr unit bytes
bin	-inf	0
bin	4095	0
bin	4096	48976
bin	4097	0
scalar Net60a.rte[55].queue[2] busy:timeavg 0.011117010056823
attr interpolationmode sample-hold
attr recordingmode timeavg
attr title "server busy state, timeavg"
scalar Net60a.rte[55].queue[2] qlen:timeavg 2.7857670855416e-06
attr interpolationmode sample-hold
attr recordingmode timeavg
attr title "queue length, timeavg"
scalar Net60a.rte[55].queue[2] qlen:max 1
attr interpolationmode sample-hold
attr recordingmode max
attr title "queue length, max"
scalar Net60a.rte[55].queue[2] drop:count 0
attr interpolationmode none
attr recordingmode count
attr title "dropped packet byte length, count"
attr unit bytes
scalar Net60a.rte[55].queue[2] drop:sum 0
attr interpolationmode none
attr recordingmode sum
attr title "dropped packet byte length, sum"
attr unit bytes
par Net60a.rte[55] typename "\"node.Node\""
par Net60a.rte[55] address 55
par Net60a.rte[55] appType "\"App\""
par Net60a.rte[56].app typename "\"node.App\""
par Net60a.rte[56].app address 56
par Net60a.rte[56].app destAddresses "\"1\""
par Net60a.rte[56].app sendIaTime "uniform(1ms, 5ms)"
attr unit s
par Net60a.rte[56].app packetLength 4096byte
attr unit byte
scalar Net60a.rte[56].app hopCount:mean nan
attr interpolationmode none
attr recordingmode mean
attr title "hop count of arrived packets, mean"
scalar Net60a.rte[56].app hopCount:max nan
attr interpolationmode none
attr recordingmode max
attr title "hop count of arrived packets, max"
scalar Net60a.rte[56].app endToEndDelay:mean nan
attr interpolationmode none
attr recordingmode mean
attr title "end-to-end delay of arrived packets, mean"
attr unit s
scalar Net60a.rte[56].app endToEndDelay:max nan
attr interpolationmode none
attr recordingmode max
attr title "end-to-end delay of arrived packets, max"
attr unit s
par Net60a.rte[56].routing typename "\"node.Routing\""
statistic Net60a.rte[56].routing outputIf:histogram
field count 48574
field mean 1
field stddev 0
field min 1
field max 1
field sum 48574
field sqrsum 48574
attr interpolationmode none
attr recordingmode histogram
attr title "output interface for each routed packet"
bin	-inf	0
bin	0	0
bin	1	48574
bin	2	0
scalar Net60a.rte[56].routing drop:count 0
attr interpolationmode none
attr recordingmode count
attr title "dropped packet byte length, count"
attr unit bytes
scalar Net60a.rte[56].routing drop:sum 0
attr interpolationmode none
attr recordingmode sum
attr title "dropped packet byte length, sum"
attr unit bytes
par Net60a.rte[56].queue[0] typename "\"node.L2Queue\""
par Net60a.rte[56].queue[0] frameCapacity 3
par Net60a.rte[56].queue[0] useCutThroughSwitching false
scalar Net60a.rte[56].queue[0] rxBytes:count 440
attr interpolationmode none
attr recordingmode count
attr title "received packet byte length, count"
attr unit bytes
scalar Net60a.rte[56].queue[0] rxBytes:sum 1802240
attr interpolationmode none
attr recordingmode sum
attr title "received packet byte length, sum"
attr unit bytes
statistic Net60a.rte[56].queue[0] rxBytes:histogram
field count 440
field mean 4096
field stddev 0
field min 4096
field max 4096
field sum 1802240
field sqrsum 7381975040
attr interpolationmode none
attr recordingmode histogram
attr title "received packet byte length"
attr unit bytes
bin	-inf	0
bin	4095	0
bin	4096	440
bin	4097	0
scalar Net60a.rte[56].queue[0] txBytes:count 0
attr interpolationmode none
attr recordingmode count
attr title "transmitting packet byte length, count"
attr unit bytes
scalar Net60a.rte[56].queue[0] txBytes:sum 0
attr interpolationmode none
attr recordingmode sum
attr title "transmitting packet byte length, sum"
attr unit bytes
statistic Net60a.rte[56].queue[0] txBytes:histogram
field count 0
field mean nan
field stddev nan
field min nan
field max nan
field sum 0
field sqrsum 0
attr interpolationmode none
attr recordingmode histogram
attr title "transmitting packet byte length"
attr unit bytes
bin	-inf	0
bin	0	0
bin	1	0
scalar Net60a.rte[56].queue[0] busy:timeavg 0
attr interpolationmode sample-hold
attr recordingmode timeavg
attr title "server busy state, timeavg"
scalar Net60a.rte[56].queue[0] qlen:timeavg 0
attr interpolationmode sample-hold
attr recordingmode timeavg
attr title "queue length, timeavg"
scalar Net60a.rte[56].queue[0] qlen:max 0
attr interpolationmode sample-hold
attr recordingmode max
attr title "queue length, max"
scalar Net60a.rte[56].queue[0] drop:count 0
attr interpolationmode none
attr recordingmode count
attr title "dropped packet byte length, count"
attr unit bytes
scalar Net60a.rte[56].queue[0] drop:sum 0
attr interpolationmode none
attr recordingmode sum
attr title "dropped packet byte length, sum"
attr unit bytes
par Net60a.rte[56].queue[1] typename "\"node.L2Queue\""
par Net60a.rte[56].queue[1] frameCapacity 3
par Net60a.rte[56].queue[1] useCutThroughSwitching false
scalar Net60a.rte[56].queue[1] rxBytes:count 0
attr interpolationmode none
attr recordingmode count
attr title "received packet byte length, count"
attr unit bytes
scalar Net60a.rte[56].queue[1] rxBytes:sum 0
attr interpolationmode none
attr recordingmode sum
attr title "received packet byte length, sum"
attr unit bytes
statistic Net60a.rte[56].queue[1] rxBytes:histogram
field count 0
field mean nan
field stddev nan
field min nan
field max nan
field sum 0
field sqrsum 0
attr interpolationmode none
attr recordingmode histogram
attr title "received packet byte length"
attr unit bytes
bin	-inf	0
bin	0	0
bin	1	0
scalar Net60a.rte[56].queue[1] txBytes:count 441
attr interpolationmode none
attr recordingmode count
attr title "transmitting packet byte length, count"
attr unit bytes
scalar Net60a.rte[56].queue[1] txBytes:sum 1806336
attr interpolationmode none
attr recordingmode sum
attr title "transmitting packet byte length, sum"
attr unit bytes
statistic Net60a.rte[56].queue[1] txBytes:histogram
field count 441
field mean 4096
field stddev 0
field min 4096
field max 4096
field sum 1806336
field sqrsum 7398752256
attr interpolationmode none
attr recordingmode histogram
attr title "transmitting packet byte length"
attr unit bytes
bin	-inf	0
bin	4095	0
bin	4096	441
bin	4097	0
scalar Net60a.rte[56].queue[1] busy:timeavg 0.99997861315556
attr interpolationmode sample-hold
attr recordingmode timeavg
attr title "server busy state, timeavg"
scalar Net60a.rte[56].queue[1] qlen:timeavg 2.9945555972691
attr interpolationmode sample-hold
attr recordingmode timeavg
attr title "queue length, timeavg"
scalar Net60a.rte[56].queue[1] qlen:max 3
attr interpolationmode sample-hold
attr recordingmode max
attr title "queue length, max"
scalar Net60a.rte[56].queue[1] drop:count 48130
attr interpolationmode none
attr recordingmode count
attr title "dropped packet byte length, count"
attr unit bytes
scalar Net60a.rte[56].queue[1] drop:sum 197140480
attr interpolationmode none
attr recordingmode sum
attr title "dropped packet byte length, sum"
attr unit bytes
par Net60a.rte[56] typename "\"node.Node\""
par Net60a.rte[56] address 56
par Net60a.rte[56] appType "\"App\""
par Net60a typename "\"networks.Net60a\""

